<?xml version="1.0" encoding="UTF-8"?>

<!-- generated on 2024-10-08 20:43:51 by Eclipse SUMO netedit Version 1.20.0
<configuration xmlns:xsi="http://www.w3.org/2001/XMLSchema-instance" xsi:noNamespaceSchemaLocation="http://sumo.dlr.de/xsd/neteditConfiguration.xsd">

    <input>
        <sumo-net-file value="C:\Users\nieder\Documents\Uni\Masterarbeit\Projekt\VerkehrsflussoptimierungDurchCarToCarCommunication\src\main\sumo\circle\network.net.xml"/>
    </input>

    <output>
        <output-file value="C:\Users\nieder\Documents\Uni\Masterarbeit\Projekt\VerkehrsflussoptimierungDurchCarToCarCommunication\src\main\sumo\circle\network.net.xml"/>
    </output>

    <processing>
        <geometry.min-radius.fix.railways value="false"/>
        <geometry.max-grade.fix value="false"/>
        <offset.disable-normalization value="true"/>
        <lefthand value="0"/>
    </processing>

    <junctions>
        <no-turnarounds value="true"/>
        <junctions.corner-detail value="5"/>
        <junctions.limit-turn-speed value="5.50"/>
        <rectangular-lane-cut value="0"/>
    </junctions>

    <pedestrian>
        <walkingareas value="0"/>
    </pedestrian>

</configuration>
-->

<net version="1.20" junctionCornerDetail="5" limitTurnSpeed="5.50" xmlns:xsi="http://www.w3.org/2001/XMLSchema-instance" xsi:noNamespaceSchemaLocation="http://sumo.dlr.de/xsd/net_file.xsd">

    <location netOffset="0.00,0.00" convBoundary="-1137.24,-462.31,598.69,160.96" origBoundary="-10000000000.00,-10000000000.00,10000000000.00,10000000000.00" projParameter="!"/>

    <edge id=":J1_0" function="internal">
        <lane id=":J1_0_0" index="0" speed="13.89" length="0.55" shape="102.84,107.85 102.92,107.88 102.97,107.90 103.02,107.91 103.10,107.94"/>
        <lane id=":J1_0_1" index="1" speed="13.89" length="0.55" shape="101.54,110.77 101.76,110.86 101.91,110.93 102.07,110.97 102.31,111.04"/>
    </edge>
    <edge id=":J10_0" function="internal">
        <lane id=":J10_0_0" index="0" speed="13.89" length="0.34" shape="462.89,-390.34 462.85,-390.37 462.83,-390.40 462.80,-390.41 462.76,-390.44"/>
        <lane id=":J10_0_1" index="1" speed="13.89" length="0.34" shape="464.91,-392.83 464.80,-392.92 464.71,-392.98 464.63,-393.04 464.50,-393.12"/>
    </edge>
    <edge id=":J11_0" function="internal">
        <lane id=":J11_0_0" index="0" speed="13.89" length="0.67" shape="277.58,-457.47 277.48,-457.48 277.42,-457.48 277.35,-457.48 277.25,-457.47"/>
        <lane id=":J11_0_1" index="1" speed="13.89" length="0.67" shape="277.90,-460.65 277.61,-460.68 277.41,-460.69 277.20,-460.68 276.91,-460.65"/>
    </edge>
    <edge id=":J12_0" function="internal">
        <lane id=":J12_0_0" index="0" speed="13.89" length="0.70" shape="14.19,-328.81 14.13,-328.73 14.09,-328.67 14.06,-328.61 14.01,-328.52"/>
        <lane id=":J12_0_1" index="1" speed="13.89" length="0.70" shape="11.68,-330.79 11.49,-330.54 11.37,-330.37 11.26,-330.18 11.13,-329.91"/>
    </edge>
    <edge id=":J13_0" function="internal">
        <lane id=":J13_0_0" index="0" speed="13.89" length="0.29" shape="-22.15,-206.73 -22.17,-206.47"/>
        <lane id=":J13_0_1" index="1" speed="13.89" length="0.29" shape="-25.33,-207.05 -25.36,-206.74"/>
    </edge>
    <edge id=":J14_0" function="internal">
        <lane id=":J14_0_0" index="0" speed="13.89" length="0.47" shape="-26.96,-150.37 -26.96,-150.30 -26.97,-150.25 -26.96,-150.21 -26.96,-150.14"/>
        <lane id=":J14_0_1" index="1" speed="13.89" length="0.47" shape="-30.15,-150.64 -30.16,-150.44 -30.17,-150.29 -30.17,-150.15 -30.15,-149.94"/>
    </edge>
    <edge id=":J15_0" function="internal">
        <lane id=":J15_0_0" index="0" speed="13.89" length="0.36" shape="35.13,63.51 35.16,63.55 35.19,63.58 35.21,63.61 35.25,63.64"/>
        <lane id=":J15_0_1" index="1" speed="13.89" length="0.36" shape="32.67,65.56 32.77,65.68 32.84,65.76 32.92,65.84 33.04,65.95"/>
    </edge>
    <edge id=":J2_0" function="internal">
        <lane id=":J2_0_0" index="0" speed="13.89" length="0.60" shape="185.33,128.89 185.42,128.91 185.48,128.92 185.54,128.93 185.63,128.93"/>
        <lane id=":J2_0_1" index="1" speed="13.89" length="0.60" shape="184.55,131.99 184.81,132.05 184.99,132.09 185.17,132.11 185.44,132.13"/>
    </edge>
    <edge id=":J3_0" function="internal">
        <lane id=":J3_0_0" index="0" speed="13.89" length="4.79" shape="264.40,133.63 265.55,133.70 266.34,133.75 267.13,133.75 268.29,133.71"/>
        <lane id=":J3_0_1" index="1" speed="13.89" length="4.79" shape="262.76,136.73 264.45,136.85 265.60,136.94 266.76,136.96 268.44,136.91"/>
    </edge>
    <edge id=":J3_2" function="internal">
        <lane id=":J3_2_0" index="0" speed="13.89" length="4.70" shape="263.92,140.42 268.60,140.10"/>
    </edge>
    <edge id=":J4_0" function="internal">
        <lane id=":J4_0_0" index="0" speed="13.89" length="8.65" shape="505.75,79.14 507.96,78.08 509.82,78.02 511.65,77.92 513.79,76.76"/>
        <lane id=":J4_0_1" index="1" speed="13.89" length="8.65" shape="507.69,81.68 509.94,80.59 511.82,80.51 513.69,80.39 515.86,79.20"/>
    </edge>
    <edge id=":J5_0" function="internal">
        <lane id=":J5_0_0" index="0" speed="13.89" length="0.87" shape="555.03,27.88 555.11,27.77 555.15,27.70 555.19,27.62 555.23,27.50"/>
        <lane id=":J5_0_1" index="1" speed="13.89" length="0.87" shape="557.63,29.75 557.85,29.43 557.99,29.20 558.10,28.96 558.24,28.60"/>
    </edge>
    <edge id=":J6_0" function="internal">
        <lane id=":J6_0_0" index="0" speed="13.89" length="0.59" shape="582.90,-49.67 582.93,-49.75 582.94,-49.81 582.95,-49.87 582.97,-49.95"/>
        <lane id=":J6_0_1" index="1" speed="13.89" length="0.59" shape="585.91,-48.60 586.00,-48.85 586.05,-49.02 586.09,-49.20 586.13,-49.46"/>
    </edge>
    <edge id=":J7_0" function="internal">
        <lane id=":J7_0_0" index="0" speed="13.89" length="0.30" shape="593.88,-156.38 593.88,-156.42 593.88,-156.45 593.88,-156.48 593.88,-156.53"/>
        <lane id=":J7_0_1" index="1" speed="13.89" length="0.30" shape="597.08,-156.22 597.08,-156.35 597.09,-156.44 597.08,-156.54 597.08,-156.67"/>
    </edge>
    <edge id=":J8_0" function="internal">
        <lane id=":J8_0_0" index="0" speed="13.89" length="0.69" shape="586.27,-237.98 586.26,-238.08 586.24,-238.15 586.22,-238.22 586.19,-238.31"/>
        <lane id=":J8_0_1" index="1" speed="13.89" length="0.69" shape="589.44,-238.45 589.39,-238.75 589.35,-238.95 589.29,-239.15 589.18,-239.44"/>
    </edge>
    <edge id=":J9_0" function="internal">
        <lane id=":J9_0_0" index="0" speed="13.89" length="0.29" shape="525.77,-332.75 525.75,-332.78 525.73,-332.80 525.71,-332.82 525.68,-332.85"/>
        <lane id=":J9_0_1" index="1" speed="13.89" length="0.29" shape="528.27,-334.74 528.19,-334.85 528.13,-334.91 528.07,-334.98 527.99,-335.07"/>
    </edge>

    <edge id="E0" from="J16" to="J17" priority="-1">
        <lane id="E0_0" index="0" speed="13.89" length="594.61" shape="-10.54,-151.46 584.04,-157.26"/>
    </edge>
    <edge id="E1" from="J2" to="J3" priority="-1" shape="184.74,133.69 264.83,138.46 270.51,141.61">
        <lane id="E1_0" index="0" speed="13.89" length="78.18" shape="185.63,128.93 264.40,133.63"/>
        <lane id="E1_1" index="1" speed="13.89" length="78.18" shape="185.44,132.13 262.76,136.73"/>
    </edge>
    <edge id="E10" from="J11" to="J12" priority="-1" shape="277.40,-462.31 226.80,-456.87 178.51,-444.17 140.74,-429.28 94.46,-409.55 67.12,-388.55 37.33,-365.97 9.99,-331.23">
        <lane id="E10_0" index="0" speed="13.89" length="303.87" shape="277.25,-457.47 227.67,-452.14 180.01,-439.60 142.56,-424.84 96.90,-405.37 70.03,-384.73 40.72,-362.52 14.19,-328.81"/>
        <lane id="E10_1" index="1" speed="13.89" length="303.87" shape="276.91,-460.65 227.09,-455.29 179.01,-442.65 141.35,-427.80 95.27,-408.16 68.09,-387.28 38.46,-364.82 11.68,-330.79"/>
    </edge>
    <edge id="E11" from="J12" to="J13" priority="-1" shape="9.99,-331.23 -8.93,-292.02 -22.07,-256.41 -26.94,-207.04">
        <lane id="E11_0" index="0" speed="13.89" length="129.11" shape="14.01,-328.52 -4.51,-290.14 -17.35,-255.33 -22.15,-206.73"/>
        <lane id="E11_1" index="1" speed="13.89" length="129.11" shape="11.13,-329.91 -7.46,-291.39 -20.50,-256.05 -25.33,-207.05"/>
    </edge>
    <edge id="E12" from="J13" to="J14" priority="-1">
        <lane id="E12_0" index="0" speed="13.89" length="56.30" shape="-22.17,-206.47 -26.96,-150.37"/>
        <lane id="E12_1" index="1" speed="13.89" length="56.30" shape="-25.36,-206.74 -30.15,-150.64"/>
    </edge>
    <edge id="E13" from="J14" to="J15" priority="-1" shape="-31.78,-150.31 -28.96,-105.04 -25.11,-67.81 -20.27,-28.55 -10.98,3.99 4.92,34.76 31.67,66.86">
        <lane id="E13_0" index="0" speed="13.89" length="229.74" shape="-26.96,-150.14 -24.18,-105.44 -20.34,-68.35 -15.55,-29.51 -6.50,2.21 8.94,32.09 35.13,63.51"/>
        <lane id="E13_1" index="1" speed="13.89" length="229.74" shape="-30.15,-149.94 -27.37,-105.17 -23.52,-67.99 -18.70,-28.87 -9.49,3.40 6.26,33.87 32.67,65.56"/>
    </edge>
    <edge id="E14" from="J15" to="J1" priority="-1" shape="31.67,66.86 59.80,93.84 101.38,112.45">
        <lane id="E14_0" index="0" speed="13.89" length="82.52" shape="35.25,63.64 62.52,89.80 102.84,107.85"/>
        <lane id="E14_1" index="1" speed="13.89" length="82.52" shape="33.04,65.95 60.71,92.49 101.54,110.77"/>
    </edge>
    <edge id="E15" from="J1" to="J2" priority="-1" shape="101.38,112.45 143.64,123.27 184.74,133.69">
        <lane id="E15_0" index="0" speed="13.89" length="84.86" shape="103.10,107.94 144.83,118.62 185.33,128.89"/>
        <lane id="E15_1" index="1" speed="13.89" length="84.86" shape="102.31,111.04 144.04,121.72 184.55,131.99"/>
    </edge>
    <edge id="E16" from="J18" to="J19" priority="-1">
        <lane id="E16_0" index="0" speed="13.89" length="583.18" shape="283.50,125.08 276.85,-458.06"/>
    </edge>
    <edge id="E17" from="J20" to="J21" priority="-1">
        <lane id="E17_0" index="0" speed="13.89" length="22.59" shape="-1136.98,-5.79 -1114.70,-2.07"/>
    </edge>
    <edge id="E2" from="J3" to="J4" priority="-1" shape="270.51,141.61 332.60,138.56 379.17,132.25 431.52,123.55 467.59,112.69 491.04,100.49 513.80,83.05">
        <lane id="E2_0" index="0" speed="13.89" length="249.91" shape="268.29,133.71 331.87,130.59 377.98,124.34 429.70,115.74 464.56,105.25 486.73,93.72 505.75,79.14"/>
        <lane id="E2_1" index="1" speed="13.89" length="249.91" shape="268.44,136.91 332.16,133.78 378.45,127.50 430.43,118.87 465.77,108.22 488.45,96.43 507.69,81.68"/>
        <lane id="E2_2" index="2" speed="13.89" length="249.91" shape="268.60,140.10 332.45,136.97 378.93,130.67 431.16,121.99 466.98,111.20 490.18,99.14 509.64,84.22"/>
    </edge>
    <edge id="E3" from="J4" to="J5" priority="-1" shape="513.80,83.05 529.17,70.00 540.82,55.89 559.44,29.97">
        <lane id="E3_0" index="0" speed="13.89" length="64.66" shape="513.79,76.76 525.74,66.62 537.02,52.96 555.03,27.88"/>
        <lane id="E3_1" index="1" speed="13.89" length="64.66" shape="515.86,79.20 528.03,68.87 539.55,54.91 557.63,29.75"/>
    </edge>
    <edge id="E4" from="J5" to="J6" priority="-1" shape="559.44,29.97 572.37,-5.30 587.62,-48.63">
        <lane id="E4_0" index="0" speed="13.89" length="82.00" shape="555.23,27.50 567.85,-6.92 582.90,-49.67"/>
        <lane id="E4_1" index="1" speed="13.89" length="82.00" shape="558.24,28.60 570.86,-5.84 585.91,-48.60"/>
    </edge>
    <edge id="E5" from="J6" to="J7" priority="-1" shape="587.62,-48.63 596.02,-102.51 598.69,-156.44">
        <lane id="E5_0" index="0" speed="13.89" length="107.30" shape="582.97,-49.95 591.24,-103.00 593.88,-156.38"/>
        <lane id="E5_1" index="1" speed="13.89" length="107.30" shape="586.13,-49.46 594.43,-102.67 597.08,-156.22"/>
    </edge>
    <edge id="E6" from="J7" to="J8" priority="-1" shape="598.69,-156.44 596.84,-199.07 590.92,-239.36">
        <lane id="E6_0" index="0" speed="13.89" length="82.08" shape="593.88,-156.53 592.06,-198.62 586.27,-237.98"/>
        <lane id="E6_1" index="1" speed="13.89" length="82.08" shape="597.08,-156.67 595.25,-198.92 589.44,-238.45"/>
    </edge>
    <edge id="E7" from="J8" to="J9" priority="-1" shape="590.92,-239.36 576.35,-278.06 554.04,-305.08 529.34,-335.97">
        <lane id="E7_0" index="0" speed="13.89" length="113.95" shape="586.19,-238.31 572.14,-275.62 550.31,-302.05 525.77,-332.75"/>
        <lane id="E7_1" index="1" speed="13.89" length="113.95" shape="589.18,-239.44 574.95,-277.25 552.80,-304.07 528.27,-334.74"/>
    </edge>
    <edge id="E8" from="J9" to="J10" priority="-1" shape="529.34,-335.97 500.79,-365.71 465.66,-394.28">
        <lane id="E8_0" index="0" speed="13.89" length="85.48" shape="525.68,-332.85 497.53,-362.17 462.89,-390.34"/>
        <lane id="E8_1" index="1" speed="13.89" length="85.48" shape="527.99,-335.07 499.70,-364.53 464.91,-392.83"/>
    </edge>
    <edge id="E9" from="J10" to="J11" priority="-1" shape="465.66,-394.28 426.56,-419.74 377.36,-440.11 331.09,-456.89 277.40,-462.31">
        <lane id="E9_0" index="0" speed="13.89" length="200.55" shape="462.76,-390.44 424.31,-415.48 375.62,-435.63 330.01,-452.17 277.58,-457.47"/>
        <lane id="E9_1" index="1" speed="13.89" length="200.55" shape="464.50,-393.12 425.81,-418.32 376.78,-438.62 330.73,-455.32 277.90,-460.65"/>
    </edge>
    <edge id="entry" from="J0" to="J3" priority="-1">
        <lane id="entry_0" index="0" speed="13.89" length="303.82" shape="-39.31,159.36 263.92,140.42"/>
    </edge>

    <junction id="J0" type="dead_end" x="-39.21" y="160.96" incLanes="" intLanes="" shape="-39.21,160.96 -39.41,157.77"/>
    <junction id="J1" type="priority" x="101.38" y="112.45" incLanes="E14_0 E14_1" intLanes=":J1_0_0 :J1_0_1" shape="101.91,112.59 103.50,106.39 100.88,112.23 101.25,112.39 101.38,112.44 101.52,112.48 101.68,112.53">
        <request index="0" response="00" foes="00" cont="0"/>
        <request index="1" response="00" foes="00" cont="0"/>
    </junction>
    <junction id="J10" type="priority" x="465.66" y="-394.28" incLanes="E8_0 E8_1" intLanes=":J10_0_0 :J10_0_1" shape="461.88,-389.10 465.92,-394.07 465.73,-394.22 465.66,-394.28 465.59,-394.33 465.38,-394.46">
        <request index="0" response="00" foes="00" cont="0"/>
        <request index="1" response="00" foes="00" cont="0"/>
    </junction>
    <junction id="J11" type="priority" x="277.40" y="-462.31" incLanes="E9_0 E9_1" intLanes=":J11_0_0 :J11_0_1" shape="277.42,-455.88 278.06,-462.24 277.57,-462.29 277.40,-462.29 277.23,-462.29 277.02,-462.27 276.74,-462.24">
        <request index="0" response="00" foes="00" cont="0"/>
        <request index="1" response="00" foes="00" cont="0"/>
    </junction>
    <junction id="J12" type="priority" x="9.99" y="-331.23" incLanes="E10_0 E10_1" intLanes=":J12_0_0 :J12_0_1" shape="15.45,-327.82 10.42,-331.78 10.11,-331.37 10.01,-331.22 9.92,-331.06 9.82,-330.87 9.69,-330.60">
        <request index="0" response="00" foes="00" cont="0"/>
        <request index="1" response="00" foes="00" cont="0"/>
    </junction>
    <junction id="J13" type="priority" x="-26.94" y="-207.04" incLanes="E11_0 E11_1" intLanes=":J13_0_0 :J13_0_1" shape="-20.55,-206.58 -26.92,-207.21 -26.95,-206.87 -20.58,-206.33">
        <request index="0" response="00" foes="00" cont="0"/>
        <request index="1" response="00" foes="00" cont="0"/>
    </junction>
    <junction id="J14" type="priority" x="-31.78" y="-150.31" incLanes="E12_0 E12_1" intLanes=":J14_0_0 :J14_0_1" shape="-31.75,-149.84 -25.36,-150.24 -31.74,-150.78 -31.77,-150.43 -31.77,-150.31 -31.77,-150.19 -31.76,-150.04">
        <request index="0" response="00" foes="00" cont="0"/>
        <request index="1" response="00" foes="00" cont="0"/>
    </junction>
    <junction id="J15" type="priority" x="31.67" y="66.86" incLanes="E13_0 E13_1" intLanes=":J15_0_0 :J15_0_1" shape="31.93,67.11 36.36,62.49 31.44,66.59 31.61,66.79 31.67,66.86 31.74,66.92">
        <request index="0" response="00" foes="00" cont="0"/>
        <request index="1" response="00" foes="00" cont="0"/>
    </junction>
    <junction id="J16" type="dead_end" x="-10.52" y="-149.86" incLanes="" intLanes="" shape="-10.52,-149.86 -10.55,-153.06"/>
    <junction id="J17" type="dead_end" x="584.06" y="-155.66" incLanes="E0_0" intLanes="" shape="584.03,-158.86 584.06,-155.66"/>
    <junction id="J18" type="dead_end" x="285.10" y="125.06" incLanes="" intLanes="" shape="285.10,125.06 281.90,125.10"/>
    <junction id="J19" type="dead_end" x="278.45" y="-458.08" incLanes="E16_0" intLanes="" shape="275.25,-458.04 278.45,-458.08"/>
    <junction id="J2" type="priority" x="184.74" y="133.69" incLanes="E15_0 E15_1" intLanes=":J2_0_0 :J2_0_1" shape="185.34,133.73 185.73,127.34 184.15,133.54 184.59,133.65 184.74,133.68 184.90,133.70 185.09,133.71">
        <request index="0" response="00" foes="00" cont="0"/>
        <request index="1" response="00" foes="00" cont="0"/>
    </junction>
    <junction id="J20" type="dead_end" x="-1137.24" y="-4.21" incLanes="" intLanes="" shape="-1137.24,-4.21 -1136.72,-7.37"/>
    <junction id="J21" type="dead_end" x="-1114.96" y="-0.50" incLanes="E17_0" intLanes="" shape="-1114.43,-3.65 -1114.96,-0.50"/>
    <junction id="J3" type="priority" x="270.51" y="141.61" incLanes="E1_0 E1_1 entry_0" intLanes=":J3_0_0 :J3_0_1 :J3_2_0" shape="268.68,141.70 268.21,132.11 267.10,132.15 266.71,132.15 266.33,132.14 265.22,132.07 261.94,138.29 263.82,138.82 264.02,142.02">
        <request index="0" response="000" foes="000" cont="0"/>
        <request index="1" response="000" foes="000" cont="0"/>
        <request index="2" response="000" foes="000" cont="0"/>
    </junction>
    <junction id="J4" type="priority" x="513.80" y="83.05" incLanes="E2_0 E2_1 E2_2" intLanes=":J4_0_0 :J4_0_1" shape="516.89,80.42 512.75,75.55 510.01,76.78 508.81,76.77 507.60,76.74 506.29,77.01 504.77,77.87 510.61,85.49">
        <request index="0" response="00" foes="00" cont="0"/>
        <request index="1" response="00" foes="00" cont="0"/>
    </junction>
    <junction id="J5" type="priority" x="559.44" y="29.97" incLanes="E3_0 E3_1" intLanes=":J5_0_0 :J5_0_1" shape="559.74,29.15 553.73,26.95 558.93,30.68 559.30,30.15 559.41,29.96 559.51,29.75 559.61,29.50">
        <request index="0" response="00" foes="00" cont="0"/>
        <request index="1" response="00" foes="00" cont="0"/>
    </junction>
    <junction id="J6" type="priority" x="587.62" y="-48.63" incLanes="E4_0 E4_1" intLanes=":J6_0_0 :J6_0_1" shape="587.71,-49.21 581.39,-50.20 587.42,-48.07 587.57,-48.49 587.61,-48.63 587.64,-48.78 587.67,-48.97">
        <request index="0" response="00" foes="00" cont="0"/>
        <request index="1" response="00" foes="00" cont="0"/>
    </junction>
    <junction id="J7" type="priority" x="598.69" y="-156.44" incLanes="E5_0 E5_1" intLanes=":J7_0_0 :J7_0_1" shape="598.68,-156.74 592.28,-156.46 598.68,-156.14 598.69,-156.36 598.69,-156.44 598.68,-156.61">
        <request index="0" response="00" foes="00" cont="0"/>
        <request index="1" response="00" foes="00" cont="0"/>
    </junction>
    <junction id="J8" type="priority" x="590.92" y="-239.36" incLanes="E6_0 E6_1" intLanes=":J8_0_0 :J8_0_1" shape="584.69,-237.75 591.02,-238.68 590.94,-239.18 590.90,-239.36 590.85,-239.53 590.78,-239.73 590.68,-240.00">
        <request index="0" response="00" foes="00" cont="0"/>
        <request index="1" response="00" foes="00" cont="0"/>
    </junction>
    <junction id="J9" type="priority" x="529.34" y="-335.97" incLanes="E7_0 E7_1" intLanes=":J9_0_0 :J9_0_1" shape="524.52,-331.75 529.52,-335.74 529.39,-335.91 529.34,-335.97 529.22,-336.09 529.14,-336.18">
        <request index="0" response="00" foes="00" cont="0"/>
        <request index="1" response="00" foes="00" cont="0"/>
    </junction>

    <connection from="E1" to="E2" fromLane="0" toLane="0" via=":J3_0_0" dir="s" state="M"/>
    <connection from="E1" to="E2" fromLane="1" toLane="1" via=":J3_0_1" dir="s" state="M"/>
    <connection from="E10" to="E11" fromLane="0" toLane="0" via=":J12_0_0" dir="s" state="M"/>
    <connection from="E10" to="E11" fromLane="1" toLane="1" via=":J12_0_1" dir="s" state="M"/>
    <connection from="E11" to="E12" fromLane="0" toLane="0" via=":J13_0_0" dir="s" state="M"/>
    <connection from="E11" to="E12" fromLane="1" toLane="1" via=":J13_0_1" dir="s" state="M"/>
    <connection from="E12" to="E13" fromLane="0" toLane="0" via=":J14_0_0" dir="s" state="M"/>
    <connection from="E12" to="E13" fromLane="1" toLane="1" via=":J14_0_1" dir="s" state="M"/>
    <connection from="E13" to="E14" fromLane="0" toLane="0" via=":J15_0_0" dir="s" state="M"/>
    <connection from="E13" to="E14" fromLane="1" toLane="1" via=":J15_0_1" dir="s" state="M"/>
    <connection from="E14" to="E15" fromLane="0" toLane="0" via=":J1_0_0" dir="s" state="M"/>
    <connection from="E14" to="E15" fromLane="1" toLane="1" via=":J1_0_1" dir="s" state="M"/>
    <connection from="E15" to="E1" fromLane="0" toLane="0" via=":J2_0_0" dir="s" state="M"/>
    <connection from="E15" to="E1" fromLane="1" toLane="1" via=":J2_0_1" dir="s" state="M"/>
    <connection from="E2" to="E3" fromLane="0" toLane="0" via=":J4_0_0" dir="s" state="M"/>
    <connection from="E2" to="E3" fromLane="1" toLane="1" via=":J4_0_1" dir="s" state="M"/>
    <connection from="E3" to="E4" fromLane="0" toLane="0" via=":J5_0_0" dir="s" state="M"/>
    <connection from="E3" to="E4" fromLane="1" toLane="1" via=":J5_0_1" dir="s" state="M"/>
    <connection from="E4" to="E5" fromLane="0" toLane="0" via=":J6_0_0" dir="s" state="M"/>
    <connection from="E4" to="E5" fromLane="1" toLane="1" via=":J6_0_1" dir="s" state="M"/>
    <connection from="E5" to="E6" fromLane="0" toLane="0" via=":J7_0_0" dir="s" state="M"/>
    <connection from="E5" to="E6" fromLane="1" toLane="1" via=":J7_0_1" dir="s" state="M"/>
    <connection from="E6" to="E7" fromLane="0" toLane="0" via=":J8_0_0" dir="s" state="M"/>
    <connection from="E6" to="E7" fromLane="1" toLane="1" via=":J8_0_1" dir="s" state="M"/>
    <connection from="E7" to="E8" fromLane="0" toLane="0" via=":J9_0_0" dir="s" state="M"/>
    <connection from="E7" to="E8" fromLane="1" toLane="1" via=":J9_0_1" dir="s" state="M"/>
    <connection from="E8" to="E9" fromLane="0" toLane="0" via=":J10_0_0" dir="s" state="M"/>
    <connection from="E8" to="E9" fromLane="1" toLane="1" via=":J10_0_1" dir="s" state="M"/>
    <connection from="E9" to="E10" fromLane="0" toLane="0" via=":J11_0_0" dir="s" state="M"/>
    <connection from="E9" to="E10" fromLane="1" toLane="1" via=":J11_0_1" dir="s" state="M"/>
    <connection from="entry" to="E2" fromLane="0" toLane="2" via=":J3_2_0" dir="s" state="M"/>

    <connection from=":J1_0" to="E15" fromLane="0" toLane="0" dir="s" state="M"/>
    <connection from=":J1_0" to="E15" fromLane="1" toLane="1" dir="s" state="M"/>
    <connection from=":J10_0" to="E9" fromLane="0" toLane="0" dir="s" state="M"/>
    <connection from=":J10_0" to="E9" fromLane="1" toLane="1" dir="s" state="M"/>
    <connection from=":J11_0" to="E10" fromLane="0" toLane="0" dir="s" state="M"/>
    <connection from=":J11_0" to="E10" fromLane="1" toLane="1" dir="s" state="M"/>
    <connection from=":J12_0" to="E11" fromLane="0" toLane="0" dir="s" state="M"/>
    <connection from=":J12_0" to="E11" fromLane="1" toLane="1" dir="s" state="M"/>
    <connection from=":J13_0" to="E12" fromLane="0" toLane="0" dir="s" state="M"/>
    <connection from=":J13_0" to="E12" fromLane="1" toLane="1" dir="s" state="M"/>
    <connection from=":J14_0" to="E13" fromLane="0" toLane="0" dir="s" state="M"/>
    <connection from=":J14_0" to="E13" fromLane="1" toLane="1" dir="s" state="M"/>
    <connection from=":J15_0" to="E14" fromLane="0" toLane="0" dir="s" state="M"/>
    <connection from=":J15_0" to="E14" fromLane="1" toLane="1" dir="s" state="M"/>
    <connection from=":J2_0" to="E1" fromLane="0" toLane="0" dir="s" state="M"/>
    <connection from=":J2_0" to="E1" fromLane="1" toLane="1" dir="s" state="M"/>
    <connection from=":J3_0" to="E2" fromLane="0" toLane="0" dir="s" state="M"/>
    <connection from=":J3_0" to="E2" fromLane="1" toLane="1" dir="s" state="M"/>
    <connection from=":J3_2" to="E2" fromLane="0" toLane="2" dir="s" state="M"/>
    <connection from=":J4_0" to="E3" fromLane="0" toLane="0" dir="s" state="M"/>
    <connection from=":J4_0" to="E3" fromLane="1" toLane="1" dir="s" state="M"/>
    <connection from=":J5_0" to="E4" fromLane="0" toLane="0" dir="s" state="M"/>
    <connection from=":J5_0" to="E4" fromLane="1" toLane="1" dir="s" state="M"/>
    <connection from=":J6_0" to="E5" fromLane="0" toLane="0" dir="s" state="M"/>
    <connection from=":J6_0" to="E5" fromLane="1" toLane="1" dir="s" state="M"/>
    <connection from=":J7_0" to="E6" fromLane="0" toLane="0" dir="s" state="M"/>
    <connection from=":J7_0" to="E6" fromLane="1" toLane="1" dir="s" state="M"/>
    <connection from=":J8_0" to="E7" fromLane="0" toLane="0" dir="s" state="M"/>
    <connection from=":J8_0" to="E7" fromLane="1" toLane="1" dir="s" state="M"/>
    <connection from=":J9_0" to="E8" fromLane="0" toLane="0" dir="s" state="M"/>
    <connection from=":J9_0" to="E8" fromLane="1" toLane="1" dir="s" state="M"/>

</net>
