<?xml version="1.0" encoding="UTF-8"?>

<!-- generated on 2024-09-25 19:07:01 by Eclipse SUMO netedit Version 1.20.0
<configuration xmlns:xsi="http://www.w3.org/2001/XMLSchema-instance" xsi:noNamespaceSchemaLocation="http://sumo.dlr.de/xsd/neteditConfiguration.xsd">

    <input>
        <sumo-net-file value="C:\Users\nieder\Documents\Uni\Masterarbeit\Projekt\VerkehrsflussoptimierungDurchCarToCarCommunication\src\main\sumo\circle\network.net.xml"/>
    </input>

    <output>
        <output-file value="C:\Users\nieder\Documents\Uni\Masterarbeit\Projekt\VerkehrsflussoptimierungDurchCarToCarCommunication\src\main\sumo\circle\network.net.xml"/>
    </output>

    <processing>
        <geometry.min-radius.fix.railways value="false"/>
        <geometry.max-grade.fix value="false"/>
        <offset.disable-normalization value="true"/>
        <lefthand value="0"/>
    </processing>

    <junctions>
        <no-turnarounds value="true"/>
        <junctions.corner-detail value="5"/>
        <junctions.limit-turn-speed value="5.50"/>
        <rectangular-lane-cut value="0"/>
    </junctions>

    <pedestrian>
        <walkingareas value="0"/>
    </pedestrian>

</configuration>
-->

<net version="1.20" junctionCornerDetail="5" limitTurnSpeed="5.50" xmlns:xsi="http://www.w3.org/2001/XMLSchema-instance" xsi:noNamespaceSchemaLocation="http://sumo.dlr.de/xsd/net_file.xsd">

    <location netOffset="0.00,0.00" convBoundary="-29.36,-297.38,662.45,203.08" origBoundary="-10000000000.00,-10000000000.00,10000000000.00,10000000000.00" projParameter="!"/>

    <edge id=":J1_0" function="internal">
        <lane id=":J1_0_0" index="0" speed="13.89" length="0.29" shape="56.91,157.55 57.06,157.76"/>
        <lane id=":J1_0_1" index="1" speed="13.89" length="0.29" shape="54.27,159.36 54.46,159.63"/>
    </edge>
    <edge id=":J10_0" function="internal">
        <lane id=":J10_0_0" index="0" speed="13.89" length="0.10" shape="396.28,-292.55 396.28,-292.55"/>
        <lane id=":J10_0_1" index="1" speed="13.89" length="0.10" shape="396.20,-295.75 396.20,-295.75"/>
    </edge>
    <edge id=":J11_0" function="internal">
        <lane id=":J11_0_0" index="0" speed="13.89" length="0.30" shape="252.92,-285.98 252.62,-285.96"/>
        <lane id=":J11_0_1" index="1" speed="13.89" length="0.30" shape="252.73,-289.17 252.43,-289.15"/>
    </edge>
    <edge id=":J12_0" function="internal">
        <lane id=":J12_0_0" index="0" speed="13.89" length="0.31" shape="132.44,-264.28 132.17,-264.12"/>
        <lane id=":J12_0_1" index="1" speed="13.89" length="0.31" shape="130.84,-267.05 130.57,-266.89"/>
    </edge>
    <edge id=":J13_0" function="internal">
        <lane id=":J13_0_0" index="0" speed="13.89" length="0.33" shape="18.84,-193.48 18.70,-193.17"/>
        <lane id=":J13_0_1" index="1" speed="13.89" length="0.33" shape="15.94,-194.82 15.80,-194.52"/>
    </edge>
    <edge id=":J14_0" function="internal">
        <lane id=":J14_0_0" index="0" speed="13.89" length="0.32" shape="-24.54,-85.77 -24.52,-85.45"/>
        <lane id=":J14_0_1" index="1" speed="13.89" length="0.32" shape="-27.73,-85.61 -27.71,-85.29"/>
    </edge>
    <edge id=":J15_0" function="internal">
        <lane id=":J15_0_0" index="0" speed="13.89" length="0.27" shape="-11.15,58.46 -11.04,58.63"/>
        <lane id=":J15_0_1" index="1" speed="13.89" length="0.27" shape="-13.86,60.16 -13.67,60.44"/>
    </edge>
    <edge id=":J2_0" function="internal">
        <lane id=":J2_0_0" index="0" speed="13.89" length="0.30" shape="165.68,176.00 165.98,176.00"/>
        <lane id=":J2_0_1" index="1" speed="13.89" length="0.30" shape="165.72,179.20 166.03,179.20"/>
    </edge>
    <edge id=":J3_0" function="internal">
        <lane id=":J3_0_0" index="0" speed="13.89" length="9.65" shape="320.61,173.57 323.40,173.59 325.31,173.65 327.22,173.56 329.96,173.16"/>
        <lane id=":J3_0_1" index="1" speed="13.89" length="9.65" shape="320.66,176.77 323.60,176.79 325.62,176.84 327.63,176.74 330.53,176.31"/>
    </edge>
    <edge id=":J3_2" function="internal">
        <lane id=":J3_2_0" index="0" speed="13.89" length="10.20" shape="320.91,180.14 331.09,179.46"/>
    </edge>
    <edge id=":J4_0" function="internal">
        <lane id=":J4_0_0" index="0" speed="13.89" length="8.80" shape="529.98,118.91 532.45,118.47 534.29,118.92 536.12,119.35 538.57,118.85"/>
        <lane id=":J4_0_1" index="1" speed="13.89" length="8.80" shape="531.17,121.88 533.65,121.44 535.50,121.88 537.33,122.31 539.79,121.81"/>
    </edge>
    <edge id=":J5_0" function="internal">
        <lane id=":J5_0_0" index="0" speed="13.89" length="0.30" shape="619.69,37.12 619.81,36.83"/>
        <lane id=":J5_0_1" index="1" speed="13.89" length="0.30" shape="622.66,38.31 622.77,38.05"/>
    </edge>
    <edge id=":J6_0" function="internal">
        <lane id=":J6_0_0" index="0" speed="13.89" length="0.33" shape="657.63,-58.39 657.62,-58.73"/>
        <lane id=":J6_0_1" index="1" speed="13.89" length="0.33" shape="660.83,-58.52 660.82,-58.84"/>
    </edge>
    <edge id=":J7_0" function="internal">
        <lane id=":J7_0_0" index="0" speed="13.89" length="0.32" shape="650.69,-142.42 650.57,-142.71"/>
        <lane id=":J7_0_1" index="1" speed="13.89" length="0.32" shape="653.64,-143.66 653.52,-143.95"/>
    </edge>
    <edge id=":J8_0" function="internal">
        <lane id=":J8_0_0" index="0" speed="13.89" length="0.32" shape="612.31,-223.49 612.06,-223.67"/>
        <lane id=":J8_0_1" index="1" speed="13.89" length="0.32" shape="614.18,-226.09 613.91,-226.28"/>
    </edge>
    <edge id=":J9_0" function="internal">
        <lane id=":J9_0_0" index="0" speed="13.89" length="0.33" shape="527.35,-276.77 527.01,-276.82"/>
        <lane id=":J9_0_1" index="1" speed="13.89" length="0.33" shape="527.87,-279.92 527.56,-279.98"/>
    </edge>

    <edge id="E1" from="J2" to="J3" priority="-1">
        <lane id="E1_0" index="0" speed="13.89" length="154.65" shape="165.98,176.00 320.61,173.57"/>
        <lane id="E1_1" index="1" speed="13.89" length="154.65" shape="166.03,179.20 320.66,176.77"/>
    </edge>
    <edge id="E10" from="J11" to="J12" priority="-1" shape="252.48,-290.76 251.65,-290.71 250.70,-290.65 249.64,-290.56 248.45,-290.46 247.16,-290.34 245.77,-290.20 244.27,-290.04 242.68,-289.87 240.99,-289.67 239.22,-289.47 237.36,-289.24 235.42,-289.00 233.40,-288.75 231.32,-288.48 229.16,-288.20 226.95,-287.91 224.67,-287.60 222.34,-287.28 219.96,-286.94 217.53,-286.60 215.06,-286.24 212.55,-285.88 210.01,-285.50 207.44,-285.12 204.84,-284.72 202.22,-284.32 199.59,-283.91 196.94,-283.49 194.28,-283.06 191.62,-282.63 188.96,-282.19 186.31,-281.74 183.66,-281.29 181.02,-280.83 178.40,-280.37 175.80,-279.91 173.23,-279.44 170.68,-278.97 168.17,-278.50 165.70,-278.02 163.27,-277.54 160.88,-277.06 158.55,-276.58 156.27,-276.10 154.04,-275.62 151.89,-275.14 149.79,-274.67 147.77,-274.19 145.83,-273.71 143.96,-273.24 142.18,-272.77 140.49,-272.31 138.88,-271.85 137.38,-271.39 135.98,-270.94 134.68,-270.49 133.49,-270.05 132.41,-269.61 131.45,-269.18 130.61,-268.76 129.90,-268.35">
        <lane id="E10_0" index="0" speed="13.89" length="123.14" shape="252.62,-285.96 251.95,-285.92 251.06,-285.86 250.04,-285.78 248.87,-285.68 247.62,-285.56 246.27,-285.43 244.78,-285.27 243.22,-285.10 241.54,-284.90 239.78,-284.70 237.95,-284.48 236.01,-284.24 234.00,-283.99 231.94,-283.72 229.78,-283.44 227.59,-283.15 225.32,-282.84 223.01,-282.53 220.63,-282.19 218.21,-281.85 215.75,-281.49 213.25,-281.13 210.72,-280.75 208.16,-280.37 205.57,-279.98 202.95,-279.58 200.34,-279.17 197.70,-278.75 195.05,-278.32 192.39,-277.89 189.75,-277.46 187.11,-277.01 184.47,-276.56 181.85,-276.10 179.23,-275.64 176.65,-275.19 174.10,-274.72 171.56,-274.25 169.07,-273.79 166.62,-273.31 164.21,-272.83 161.84,-272.36 159.53,-271.88 157.27,-271.41 155.07,-270.93 152.94,-270.46 150.87,-269.99 148.90,-269.53 146.99,-269.05 145.16,-268.59 143.42,-268.13 141.78,-267.69 140.24,-267.25 138.82,-266.81 137.50,-266.39 136.30,-265.97 135.22,-265.57 134.29,-265.19 133.50,-264.84 132.88,-264.53 132.44,-264.28"/>
        <lane id="E10_1" index="1" speed="13.89" length="123.14" shape="252.43,-289.15 251.75,-289.11 250.82,-289.05 249.77,-288.97 248.59,-288.87 247.31,-288.75 245.94,-288.61 244.44,-288.45 242.86,-288.28 241.17,-288.08 239.41,-287.88 237.56,-287.65 235.62,-287.41 233.60,-287.16 231.53,-286.89 229.37,-286.61 227.16,-286.32 224.89,-286.01 222.56,-285.70 220.18,-285.36 217.76,-285.02 215.29,-284.66 212.78,-284.30 210.25,-283.92 207.68,-283.54 205.08,-283.14 202.46,-282.74 199.84,-282.33 197.19,-281.91 194.54,-281.48 191.88,-281.05 189.22,-280.61 186.58,-280.16 183.93,-279.71 181.30,-279.25 178.68,-278.79 176.08,-278.34 173.52,-277.87 170.97,-277.40 168.47,-276.93 166.01,-276.45 163.58,-275.97 161.20,-275.49 158.88,-275.01 156.60,-274.54 154.38,-274.06 152.24,-273.58 150.15,-273.11 148.15,-272.64 146.22,-272.16 144.36,-271.69 142.59,-271.22 140.92,-270.77 139.33,-270.32 137.86,-269.86 136.49,-269.42 135.22,-268.98 134.07,-268.56 133.04,-268.14 132.13,-267.73 131.37,-267.35 130.84,-267.05"/>
    </edge>
    <edge id="E11" from="J12" to="J13" priority="-1" shape="129.90,-268.35 129.19,-267.94 128.37,-267.48 127.45,-266.97 126.44,-266.41 125.33,-265.80 124.13,-265.14 122.85,-264.44 121.48,-263.70 120.04,-262.92 118.52,-262.09 116.92,-261.23 115.26,-260.32 113.53,-259.38 111.73,-258.41 109.88,-257.41 107.97,-256.37 106.01,-255.30 104.00,-254.20 101.94,-253.08 99.84,-251.93 97.70,-250.75 95.52,-249.55 93.31,-248.33 91.07,-247.09 88.81,-245.84 86.52,-244.56 84.21,-243.27 81.89,-241.96 79.55,-240.64 77.21,-239.31 74.86,-237.97 72.50,-236.62 70.15,-235.27 67.80,-233.91 65.46,-232.54 63.13,-231.17 60.81,-229.80 58.51,-228.43 56.23,-227.07 53.98,-225.70 51.75,-224.34 49.55,-222.99 47.39,-221.64 45.26,-220.30 43.18,-218.98 41.14,-217.66 39.15,-216.36 37.20,-215.07 35.32,-213.80 33.49,-212.54 31.72,-211.31 30.01,-210.10 28.37,-208.90 26.81,-207.73 25.31,-206.59 23.90,-205.47 22.56,-204.38 21.31,-203.32 20.15,-202.29 19.08,-201.29 18.10,-200.33 17.22,-199.40 16.45,-198.51 15.77,-197.65 15.21,-196.84 14.75,-196.06 14.41,-195.33">
        <lane id="E11_0" index="0" speed="13.89" length="135.07" shape="132.17,-264.12 131.56,-263.77 130.71,-263.29 129.78,-262.77 128.76,-262.21 127.64,-261.59 126.44,-260.93 125.14,-260.22 123.76,-259.48 122.33,-258.70 120.81,-257.87 119.21,-257.01 117.56,-256.11 115.81,-255.16 114.01,-254.19 112.17,-253.19 110.27,-252.16 108.31,-251.09 106.30,-249.99 104.24,-248.87 102.15,-247.72 100.02,-246.55 97.84,-245.35 95.63,-244.13 93.39,-242.89 91.14,-241.64 88.86,-240.37 86.56,-239.08 84.25,-237.78 81.92,-236.46 79.58,-235.14 77.24,-233.80 74.89,-232.46 72.55,-231.11 70.21,-229.76 67.89,-228.40 65.57,-227.03 63.26,-225.67 60.97,-224.31 58.71,-222.96 56.48,-221.60 54.25,-220.25 52.08,-218.91 49.94,-217.57 47.82,-216.24 45.77,-214.94 43.76,-213.64 41.79,-212.35 39.87,-211.08 38.02,-209.83 36.22,-208.59 34.48,-207.38 32.81,-206.20 31.23,-205.04 29.70,-203.90 28.25,-202.80 26.91,-201.73 25.63,-200.69 24.45,-199.69 23.38,-198.74 22.40,-197.82 21.52,-196.96 20.78,-196.18 20.15,-195.45 19.62,-194.79 19.25,-194.25 18.99,-193.81 18.84,-193.48"/>
        <lane id="E11_1" index="1" speed="13.89" length="135.07" shape="130.57,-266.89 129.98,-266.55 129.15,-266.08 128.23,-265.57 127.21,-265.01 126.10,-264.40 124.90,-263.74 123.61,-263.03 122.24,-262.29 120.80,-261.51 119.28,-260.68 117.68,-259.82 116.03,-258.92 114.29,-257.97 112.49,-257.00 110.64,-256.00 108.74,-254.97 106.78,-253.90 104.77,-252.80 102.71,-251.68 100.61,-250.53 98.47,-249.35 96.29,-248.15 94.08,-246.93 91.84,-245.69 89.59,-244.44 87.30,-243.16 84.99,-241.87 82.68,-240.57 80.34,-239.25 78.00,-237.92 75.65,-236.58 73.30,-235.23 70.95,-233.88 68.60,-232.53 66.27,-231.16 63.94,-229.79 61.63,-228.42 59.33,-227.06 57.06,-225.70 54.81,-224.33 52.58,-222.98 50.39,-221.63 48.24,-220.28 46.11,-218.95 44.04,-217.63 42.01,-216.32 40.03,-215.02 38.09,-213.74 36.22,-212.48 34.40,-211.22 32.64,-210.00 30.94,-208.80 29.32,-207.61 27.77,-206.45 26.29,-205.33 24.90,-204.22 23.58,-203.15 22.36,-202.11 21.23,-201.11 20.19,-200.13 19.24,-199.21 18.41,-198.33 17.68,-197.49 17.05,-196.70 16.56,-195.98 16.16,-195.31 15.94,-194.82"/>
    </edge>
    <edge id="E12" from="J13" to="J14" priority="-1" shape="14.41,-195.33 14.06,-194.58 13.65,-193.70 13.19,-192.72 12.68,-191.62 12.11,-190.42 11.50,-189.12 10.85,-187.72 10.15,-186.23 9.42,-184.65 8.64,-182.99 7.83,-181.24 6.98,-179.42 6.11,-177.53 5.20,-175.57 4.27,-173.54 3.32,-171.46 2.34,-169.32 1.34,-167.12 0.32,-164.89 -0.71,-162.61 -1.76,-160.29 -2.81,-157.93 -3.88,-155.55 -4.95,-153.14 -6.03,-150.70 -7.11,-148.25 -8.18,-145.79 -9.26,-143.32 -10.33,-140.84 -11.40,-138.36 -12.45,-135.88 -13.50,-133.41 -14.53,-130.95 -15.54,-128.51 -16.54,-126.09 -17.52,-123.69 -18.47,-121.31 -19.40,-118.97 -20.30,-116.67 -21.18,-114.41 -22.02,-112.19 -22.83,-110.02 -23.60,-107.91 -24.33,-105.85 -25.02,-103.85 -25.67,-101.92 -26.28,-100.05 -26.84,-98.27 -27.34,-96.56 -27.80,-94.93 -28.20,-93.39 -28.55,-91.93 -28.84,-90.58 -29.06,-89.32 -29.23,-88.16 -29.33,-87.12 -29.36,-86.18 -29.32,-85.36">
        <lane id="E12_0" index="0" speed="13.89" length="116.86" shape="18.70,-193.17 18.41,-192.55 18.00,-191.67 17.54,-190.69 17.02,-189.58 16.45,-188.37 15.85,-187.09 15.20,-185.69 14.50,-184.20 13.77,-182.62 12.99,-180.96 12.18,-179.22 11.33,-177.40 10.47,-175.52 9.56,-173.56 8.64,-171.54 7.69,-169.46 6.71,-167.33 5.71,-165.13 4.69,-162.90 3.66,-160.63 2.62,-158.32 1.57,-155.97 0.50,-153.59 -0.56,-151.19 -1.64,-148.76 -2.71,-146.32 -3.78,-143.87 -4.86,-141.41 -5.92,-138.94 -6.99,-136.47 -8.03,-134.01 -9.08,-131.54 -10.10,-129.11 -11.10,-126.68 -12.10,-124.27 -13.07,-121.89 -14.01,-119.53 -14.93,-117.21 -15.83,-114.92 -16.70,-112.69 -17.53,-110.50 -18.33,-108.36 -19.08,-106.29 -19.80,-104.27 -20.48,-102.30 -21.11,-100.41 -21.71,-98.58 -22.25,-96.88 -22.73,-95.23 -23.17,-93.67 -23.54,-92.23 -23.87,-90.86 -24.13,-89.66 -24.32,-88.56 -24.47,-87.58 -24.54,-86.81 -24.56,-86.21 -24.54,-85.77"/>
        <lane id="E12_1" index="1" speed="13.89" length="116.86" shape="15.80,-194.52 15.51,-193.90 15.10,-193.02 14.64,-192.04 14.13,-190.94 13.56,-189.74 12.95,-188.44 12.30,-187.04 11.60,-185.55 10.87,-183.97 10.09,-182.31 9.28,-180.57 8.43,-178.75 7.56,-176.86 6.65,-174.90 5.73,-172.87 4.78,-170.79 3.80,-168.66 2.80,-166.46 1.78,-164.23 0.75,-161.95 -0.30,-159.63 -1.35,-157.28 -2.42,-154.90 -3.49,-152.49 -4.57,-150.05 -5.64,-147.61 -6.71,-145.15 -7.79,-142.68 -8.86,-140.21 -9.93,-137.73 -10.98,-135.26 -12.03,-132.79 -13.05,-130.34 -14.06,-127.90 -15.06,-125.48 -16.04,-123.09 -16.98,-120.72 -17.91,-118.38 -18.81,-116.09 -19.69,-113.84 -20.52,-111.63 -21.33,-109.47 -22.09,-107.37 -22.82,-105.32 -23.51,-103.33 -24.15,-101.42 -24.76,-99.56 -25.31,-97.81 -25.80,-96.12 -26.26,-94.51 -26.65,-93.00 -26.99,-91.57 -27.27,-90.27 -27.48,-89.07 -27.64,-87.97 -27.73,-87.02 -27.76,-86.19 -27.73,-85.61"/>
    </edge>
    <edge id="E13" from="J14" to="J15" priority="-1" shape="-29.32,-85.36 -29.28,-84.54 -29.24,-83.61 -29.20,-82.58 -29.15,-81.45 -29.10,-80.23 -29.05,-78.90 -29.00,-77.49 -28.94,-75.99 -28.88,-74.41 -28.82,-72.74 -28.75,-71.00 -28.68,-69.18 -28.61,-67.28 -28.53,-65.32 -28.45,-63.29 -28.36,-61.20 -28.28,-59.05 -28.19,-56.84 -28.09,-54.58 -27.99,-52.26 -27.89,-49.90 -27.78,-47.50 -27.67,-45.05 -27.55,-42.57 -27.43,-40.05 -27.30,-37.49 -27.17,-34.91 -27.04,-32.30 -26.90,-29.67 -26.76,-27.02 -26.61,-24.36 -26.45,-21.68 -26.29,-18.99 -26.13,-16.29 -25.96,-13.58 -25.78,-10.88 -25.60,-8.18 -25.41,-5.48 -25.22,-2.79 -25.02,-0.11 -24.82,2.55 -24.61,5.20 -24.39,7.82 -24.17,10.42 -23.94,13.00 -23.71,15.55 -23.47,18.06 -23.22,20.54 -22.96,22.98 -22.70,25.37 -22.44,27.72 -22.16,30.03 -21.88,32.28 -21.59,34.48 -21.30,36.62 -20.99,38.70 -20.68,40.71 -20.37,42.66 -20.04,44.54 -19.71,46.34 -19.37,48.07 -19.02,49.72 -18.67,51.29 -18.30,52.77 -17.93,54.17 -17.55,55.47 -17.16,56.68 -16.77,57.79 -16.36,58.80 -15.95,59.70 -15.53,60.50 -15.10,61.19">
        <lane id="E13_0" index="0" speed="13.89" length="145.77" shape="-24.52,-85.45 -24.49,-84.76 -24.44,-83.81 -24.40,-82.78 -24.35,-81.65 -24.30,-80.42 -24.25,-79.08 -24.20,-77.67 -24.14,-76.18 -24.08,-74.59 -24.02,-72.92 -23.95,-71.19 -23.88,-69.36 -23.81,-67.47 -23.73,-65.51 -23.65,-63.49 -23.56,-61.39 -23.48,-59.24 -23.39,-57.04 -23.29,-54.79 -23.19,-52.46 -23.09,-50.11 -22.98,-47.72 -22.88,-45.27 -22.76,-42.80 -22.64,-40.29 -22.51,-37.73 -22.38,-35.15 -22.25,-32.55 -22.11,-29.92 -21.97,-27.28 -21.82,-24.64 -21.66,-21.97 -21.50,-19.27 -21.34,-16.58 -21.17,-13.89 -20.99,-11.20 -20.81,-8.51 -20.62,-5.82 -20.43,-3.14 -20.23,-0.47 -20.03,2.18 -19.83,4.81 -19.61,7.42 -19.39,10.00 -19.16,12.57 -18.93,15.11 -18.69,17.59 -18.45,20.05 -18.19,22.47 -17.93,24.85 -17.67,27.17 -17.40,29.44 -17.12,31.67 -16.83,33.84 -16.55,35.94 -16.24,37.98 -15.94,39.97 -15.64,41.87 -15.32,43.69 -14.99,45.44 -14.67,47.11 -14.33,48.70 -14.00,50.19 -13.65,51.58 -13.31,52.89 -12.96,54.06 -12.61,55.15 -12.28,56.10 -11.95,56.91 -11.64,57.59 -11.36,58.12 -11.15,58.46"/>
        <lane id="E13_1" index="1" speed="13.89" length="145.77" shape="-27.71,-85.29 -27.68,-84.61 -27.64,-83.68 -27.60,-82.65 -27.55,-81.52 -27.50,-80.29 -27.45,-78.96 -27.40,-77.55 -27.34,-76.05 -27.28,-74.47 -27.22,-72.80 -27.15,-71.06 -27.08,-69.24 -27.01,-67.34 -26.93,-65.38 -26.85,-63.36 -26.76,-61.26 -26.68,-59.11 -26.59,-56.91 -26.49,-54.65 -26.39,-52.33 -26.29,-49.97 -26.18,-47.57 -26.07,-45.12 -25.95,-42.65 -25.83,-40.13 -25.70,-37.57 -25.57,-34.99 -25.44,-32.38 -25.30,-29.75 -25.16,-27.11 -25.01,-24.45 -24.85,-21.78 -24.69,-19.08 -24.53,-16.39 -24.36,-13.68 -24.18,-10.99 -24.00,-8.29 -23.81,-5.59 -23.62,-2.91 -23.42,-0.23 -23.22,2.43 -23.02,5.07 -22.80,7.69 -22.58,10.28 -22.35,12.86 -22.12,15.40 -21.88,17.90 -21.63,20.38 -21.37,22.81 -21.11,25.20 -20.85,27.54 -20.57,29.83 -20.29,32.08 -20.00,34.27 -19.72,36.39 -19.41,38.46 -19.10,40.46 -18.79,42.40 -18.47,44.26 -18.14,46.04 -17.80,47.75 -17.46,49.38 -17.11,50.92 -16.75,52.37 -16.39,53.74 -16.02,55.00 -15.64,56.17 -15.27,57.23 -14.89,58.17 -14.51,59.00 -14.14,59.71 -13.86,60.16"/>
    </edge>
    <edge id="E14" from="J15" to="J1" priority="-1" shape="-15.10,61.19 -13.98,62.82 -12.87,64.44 -11.75,66.07 -10.63,67.70 -9.51,69.32 -8.40,70.95 -7.28,72.58 -6.16,74.20 -5.05,75.83 -3.93,77.46 -2.81,79.08 -1.69,80.71 -0.58,82.34 0.54,83.96 1.66,85.59 2.78,87.21 3.89,88.84 5.01,90.47 6.13,92.09 7.24,93.72 8.36,95.35 9.48,96.97 10.60,98.60 11.71,100.23 12.83,101.85 13.95,103.48 15.06,105.11 16.18,106.73 17.30,108.36 18.42,109.99 19.53,111.61 20.65,113.24 21.77,114.87 22.89,116.49 24.00,118.12 25.12,119.75 26.24,121.37 27.35,123.00 28.47,124.63 29.59,126.25 30.71,127.88 31.82,129.51 32.94,131.13 34.06,132.76 35.17,134.39 36.29,136.01 37.41,137.64 38.53,139.26 39.64,140.89 40.76,142.52 41.88,144.14 43.00,145.77 44.11,147.40 45.23,149.02 46.35,150.65 47.46,152.28 48.58,153.90 49.70,155.53 50.82,157.16 51.93,158.78 53.05,160.41">
        <lane id="E14_0" index="0" speed="13.89" length="120.01" shape="-11.04,58.63 -10.02,60.10 -8.91,61.72 -7.79,63.35 -6.68,64.98 -5.55,66.60 -4.44,68.24 -3.33,69.86 -2.20,71.48 -1.09,73.12 0.02,74.74 1.14,76.36 2.27,78.00 3.38,79.62 4.49,81.24 5.61,82.87 6.74,84.49 7.85,86.13 8.96,87.75 10.09,89.37 11.20,91.01 12.31,92.63 13.43,94.25 14.56,95.89 15.67,97.51 16.78,99.13 17.91,100.77 19.02,102.39 20.13,104.01 21.26,105.64 22.38,107.27 23.49,108.89 24.61,110.52 25.72,112.15 26.85,113.77 27.96,115.41 29.07,117.03 30.20,118.65 31.31,120.29 32.42,121.91 33.54,123.53 34.67,125.17 35.78,126.79 36.89,128.41 38.02,130.05 39.13,131.67 40.24,133.29 41.36,134.92 42.49,136.54 43.60,138.18 44.71,139.80 45.83,141.42 46.96,143.06 48.07,144.68 49.18,146.30 50.31,147.94 51.42,149.56 52.53,151.18 53.66,152.81 54.78,154.44 55.89,156.06 56.91,157.55"/>
        <lane id="E14_1" index="1" speed="13.89" length="120.01" shape="-13.67,60.44 -12.66,61.91 -11.55,63.53 -10.43,65.16 -9.31,66.79 -8.19,68.41 -7.08,70.05 -5.96,71.67 -4.84,73.29 -3.73,74.93 -2.61,76.55 -1.49,78.17 -0.37,79.81 0.74,81.43 1.86,83.05 2.98,84.68 4.10,86.30 5.21,87.94 6.33,89.56 7.45,91.18 8.56,92.82 9.68,94.44 10.80,96.06 11.92,97.70 13.03,99.32 14.15,100.94 15.27,102.58 16.38,104.20 17.50,105.82 18.62,107.45 19.74,109.08 20.85,110.70 21.97,112.33 23.09,113.96 24.21,115.58 25.32,117.22 26.44,118.84 27.56,120.46 28.67,122.10 29.79,123.72 30.91,125.34 32.03,126.98 33.14,128.60 34.26,130.22 35.38,131.86 36.49,133.48 37.61,135.10 38.73,136.73 39.85,138.35 40.96,139.99 42.08,141.61 43.20,143.23 44.32,144.87 45.43,146.49 46.55,148.11 47.67,149.75 48.78,151.37 49.90,152.99 51.02,154.62 52.14,156.25 53.25,157.87 54.27,159.36"/>
    </edge>
    <edge id="E15" from="J1" to="J2" priority="-1" shape="53.05,160.41 53.61,161.19 54.23,161.95 54.90,162.69 55.62,163.42 56.40,164.14 57.23,164.84 58.11,165.52 59.04,166.20 60.03,166.85 61.07,167.49 62.16,168.12 63.30,168.73 64.50,169.33 65.75,169.91 67.05,170.47 68.41,171.02 69.82,171.56 71.28,172.08 72.79,172.59 74.36,173.08 75.98,173.55 77.65,174.02 79.38,174.46 81.15,174.89 82.98,175.31 84.87,175.71 86.80,176.10 88.79,176.47 90.83,176.83 92.93,177.17 95.08,177.49 97.27,177.81 99.53,178.10 101.83,178.39 104.19,178.65 106.60,178.90 109.07,179.14 111.58,179.36 114.15,179.57 116.77,179.76 119.45,179.94 122.18,180.10 124.96,180.25 127.79,180.38 130.67,180.50 133.61,180.60 136.60,180.69 139.65,180.76 142.74,180.82 145.89,180.86 149.10,180.89 152.35,180.90 155.66,180.90 159.02,180.88 162.43,180.85 165.90,180.80">
        <lane id="E15_0" index="0" speed="13.89" length="113.99" shape="57.06,157.76 57.42,158.27 57.87,158.82 58.39,159.39 58.96,159.97 59.58,160.54 60.24,161.10 60.99,161.68 61.77,162.25 62.60,162.80 63.53,163.37 64.49,163.92 65.50,164.47 66.58,165.01 67.71,165.53 68.90,166.04 70.17,166.55 71.48,167.06 72.85,167.54 74.27,168.02 75.74,168.48 77.30,168.93 78.89,169.38 80.54,169.80 82.25,170.22 84.01,170.62 85.84,171.01 87.71,171.39 89.65,171.75 91.63,172.10 93.67,172.43 95.78,172.74 97.92,173.05 100.14,173.34 102.39,173.62 104.70,173.88 107.08,174.12 109.51,174.36 111.98,174.58 114.52,174.78 117.10,174.97 119.75,175.15 122.45,175.31 125.20,175.46 128.00,175.58 130.85,175.70 133.76,175.80 136.73,175.89 139.75,175.96 142.82,176.02 145.94,176.06 149.13,176.09 152.36,176.10 155.65,176.10 158.98,176.08 162.37,176.05 165.68,176.00"/>
        <lane id="E15_1" index="1" speed="13.89" length="113.99" shape="54.46,159.63 54.88,160.22 55.44,160.91 56.06,161.59 56.73,162.27 57.46,162.94 58.23,163.59 59.07,164.24 59.95,164.88 60.89,165.50 61.89,166.12 62.94,166.72 64.03,167.31 65.19,167.89 66.40,168.45 67.67,168.99 69.00,169.53 70.37,170.06 71.80,170.57 73.28,171.07 74.82,171.55 76.42,172.01 78.06,172.47 79.77,172.91 81.52,173.33 83.32,173.75 85.19,174.14 87.10,174.53 89.08,174.90 91.10,175.25 93.18,175.59 95.31,175.91 97.49,176.22 99.73,176.51 102.02,176.80 104.36,177.06 106.76,177.31 109.22,177.55 111.71,177.77 114.27,177.97 116.88,178.16 119.55,178.34 122.27,178.50 125.04,178.65 127.86,178.78 130.73,178.90 133.66,179.00 136.64,179.09 139.68,179.16 142.77,179.22 145.91,179.26 149.11,179.29 152.35,179.30 155.66,179.30 159.01,179.28 162.41,179.25 165.72,179.20"/>
    </edge>
    <edge id="E2" from="J3" to="J4" priority="-1" shape="348.76,177.93 350.83,177.56 352.90,177.19 354.96,176.81 357.02,176.43 359.08,176.05 361.14,175.66 363.19,175.27 365.24,174.88 367.29,174.48 369.33,174.08 371.37,173.67 373.41,173.26 375.45,172.85 377.48,172.43 379.51,172.01 381.54,171.59 383.57,171.16 385.59,170.73 387.61,170.30 389.63,169.86 391.64,169.41 393.65,168.97 395.66,168.52 397.67,168.06 399.67,167.60 401.67,167.14 403.67,166.68 405.67,166.21 407.66,165.74 409.65,165.26 411.64,164.78 413.62,164.30 415.60,163.81 417.58,163.32 419.56,162.82 421.53,162.32 423.50,161.82 425.47,161.31 427.43,160.80 429.39,160.29 431.35,159.77 433.31,159.25 435.27,158.73 437.22,158.20 439.16,157.67 441.11,157.13 443.05,156.59 444.99,156.05 446.93,155.50 448.87,154.95 450.80,154.39 452.73,153.83 454.65,153.27 456.58,152.71 458.50,152.14 460.42,151.56 462.33,150.99 464.24,150.40 466.15,149.82 468.06,149.23 469.97,148.64 471.87,148.04 473.77,147.44 475.66,146.84 477.56,146.23 479.45,145.62 481.33,145.01 483.22,144.39 485.10,143.77 486.98,143.14 488.86,142.51 490.73,141.88 492.60,141.24 494.47,140.60 496.34,139.96 498.20,139.31 500.06,138.66 501.92,138.00 503.77,137.34 505.63,136.68 507.47,136.01 509.32,135.34 511.17,134.67 513.01,133.99 514.84,133.31 516.68,132.63 518.51,131.94 520.34,131.24 522.17,130.55 524.00,129.85 525.82,129.14 527.64,128.43 529.45,127.72 531.27,127.01 533.08,126.29 534.88,125.57 536.69,124.84">
        <lane id="E2_0" index="0" speed="13.89" length="208.30" shape="329.96,173.16 349.42,169.68 351.47,169.32 353.51,168.94 355.57,168.56 357.61,168.19 359.65,167.80 361.69,167.41 363.73,167.02 365.75,166.63 367.77,166.23 369.79,165.83 371.83,165.42 373.85,165.01 375.86,164.60 377.89,164.18 379.90,163.76 381.91,163.33 383.92,162.91 385.93,162.48 387.90,162.05 389.91,161.60 391.92,161.16 393.89,160.72 395.88,160.26 397.88,159.80 399.88,159.34 401.86,158.89 403.84,158.42 405.80,157.96 407.77,157.48 409.76,157.00 411.72,156.53 413.68,156.04 415.64,155.56 417.60,155.06 419.56,154.57 421.51,154.07 423.46,153.57 425.42,153.06 427.36,152.55 429.30,152.04 431.26,151.52 433.20,151.00 435.12,150.48 437.04,149.96 438.97,149.42 440.90,148.88 442.83,148.35 444.75,147.80 446.66,147.26 448.57,146.71 450.50,146.15 452.42,145.59 454.33,145.03 456.20,144.48 458.12,143.90 460.01,143.34 461.90,142.75 463.81,142.17 465.70,141.59 467.58,141.00 469.46,140.41 471.36,139.81 473.23,139.22 475.11,138.61 476.99,138.01 478.85,137.40 480.72,136.79 482.58,136.18 484.44,135.55 486.31,134.93 488.16,134.30 490.01,133.67 491.88,133.03 493.73,132.40 495.56,131.76 497.40,131.11 499.24,130.46 501.09,129.80 502.92,129.15 504.74,128.49 506.60,127.82 508.42,127.16 510.23,126.49 512.06,125.81 513.88,125.14 515.67,124.46 517.50,123.76 519.33,123.07 521.12,122.39 522.91,121.69 524.73,120.98 526.54,120.27 528.34,119.57 529.98,118.91"/>
        <lane id="E2_1" index="1" speed="13.89" length="208.30" shape="330.53,176.31 349.99,172.83 352.04,172.47 354.09,172.09 356.15,171.71 358.20,171.33 360.25,170.94 362.29,170.55 364.33,170.17 366.37,169.77 368.40,169.37 370.42,168.96 372.46,168.55 374.49,168.15 376.51,167.73 378.54,167.31 380.56,166.89 382.57,166.46 384.59,166.04 386.60,165.61 388.59,165.17 390.60,164.72 392.61,164.28 394.60,163.84 396.60,163.38 398.59,162.92 400.59,162.46 402.58,162.00 404.57,161.54 406.55,161.07 408.52,160.59 410.51,160.11 412.48,159.64 414.45,159.15 416.42,158.66 418.38,158.17 420.35,157.67 422.31,157.17 424.26,156.66 426.22,156.15 428.17,155.65 430.12,155.13 432.08,154.61 434.03,154.09 435.96,153.57 437.89,153.04 439.83,152.50 441.76,151.97 443.69,151.43 445.62,150.88 447.55,150.34 449.46,149.78 451.39,149.22 453.31,148.66 455.23,148.10 457.12,147.54 459.04,146.96 460.94,146.40 462.83,145.81 464.74,145.23 466.64,144.64 468.54,144.06 470.42,143.46 472.32,142.86 474.20,142.27 476.09,141.66 477.97,141.05 479.84,140.45 481.72,139.83 483.59,139.22 485.45,138.59 487.33,137.96 489.19,137.33 491.05,136.70 492.92,136.06 494.77,135.42 496.62,134.78 498.47,134.13 500.31,133.48 502.16,132.82 504.01,132.16 505.83,131.50 507.69,130.83 509.52,130.16 511.34,129.49 513.17,128.81 515.00,128.13 516.81,127.45 518.64,126.75 520.47,126.06 522.27,125.37 524.08,124.67 525.89,123.96 527.70,123.25 529.51,122.54 531.17,121.88"/>
        <lane id="E2_2" index="2" speed="13.89" length="208.30" shape="331.09,179.46 350.55,175.98 352.61,175.62 354.67,175.24 356.73,174.86 358.79,174.48 360.84,174.09 362.89,173.70 364.94,173.31 366.98,172.91 369.02,172.51 371.05,172.10 373.09,171.69 375.13,171.28 377.16,170.86 379.19,170.44 381.21,170.02 383.24,169.59 385.26,169.17 387.27,168.74 389.28,168.30 391.29,167.85 393.30,167.41 395.31,166.96 397.31,166.50 399.31,166.04 401.31,165.58 403.31,165.12 405.30,164.65 407.29,164.18 409.27,163.70 411.26,163.22 413.24,162.75 415.22,162.26 417.19,161.77 419.17,161.27 421.14,160.77 423.10,160.27 425.07,159.76 427.03,159.25 428.98,158.74 430.94,158.22 432.90,157.70 434.86,157.18 436.80,156.66 438.74,156.13 440.68,155.59 442.62,155.05 444.56,154.51 446.49,153.96 448.43,153.41 450.35,152.85 452.28,152.29 454.20,151.73 456.13,151.17 458.04,150.61 459.96,150.03 461.87,149.46 463.77,148.87 465.68,148.29 467.59,147.70 469.49,147.11 471.39,146.51 473.29,145.91 475.17,145.32 477.07,144.71 478.96,144.10 480.83,143.49 482.72,142.87 484.60,142.25 486.47,141.62 488.35,140.99 490.22,140.36 492.08,139.73 493.95,139.09 495.82,138.45 497.67,137.80 499.53,137.15 501.38,136.49 503.23,135.83 505.09,135.17 506.92,134.51 508.78,133.84 510.62,133.17 512.45,132.49 514.28,131.81 516.12,131.13 517.94,130.44 519.77,129.74 521.60,129.05 523.42,128.36 525.24,127.65 527.06,126.94 528.87,126.23 530.68,125.52 532.37,124.85"/>
    </edge>
    <edge id="E3" from="J4" to="J5" priority="-1" shape="536.69,124.84 538.81,123.97 540.90,123.08 542.98,122.18 545.03,121.25 547.06,120.31 549.06,119.34 551.05,118.36 553.01,117.36 554.95,116.33 556.87,115.29 558.76,114.23 560.63,113.15 562.48,112.05 564.31,110.94 566.12,109.80 567.90,108.64 569.66,107.47 571.40,106.27 573.11,105.06 574.81,103.83 576.48,102.57 578.13,101.30 579.75,100.01 581.36,98.70 582.94,97.37 584.50,96.03 586.03,94.66 587.55,93.27 589.04,91.87 590.51,90.44 591.96,89.00 593.38,87.54 594.78,86.05 596.16,84.55 597.52,83.03 598.86,81.49 600.17,79.93 601.46,78.35 602.73,76.76 603.98,75.14 605.20,73.50 606.40,71.85 607.58,70.17 608.74,68.48 609.87,66.77 610.98,65.04 612.07,63.29 613.14,61.52 614.18,59.73 615.21,57.92 616.21,56.09 617.18,54.24 618.14,52.38 619.07,50.49 619.98,48.59 620.87,46.67 621.74,44.72 622.58,42.76 623.40,40.78 624.20,38.78">