<?xml version="1.0" encoding="UTF-8"?>

<!-- generated on 2024-09-23 14:35:10 by Eclipse SUMO netedit Version 1.20.0
-->

<routes xmlns:xsi="http://www.w3.org/2001/XMLSchema-instance" xsi:noNamespaceSchemaLocation="http://sumo.dlr.de/xsd/routes_file.xsd">
    <!-- VTypes -->
    <vType id="normal_car"/>
    <vType id="truck_with_trailer"/>
    <!-- Vehicles, persons and containers (sorted by depart) -->
    <flow id="normal_2" type="normal_car" begin="0.00" departLane="2" departPos="0.00" departSpeed="avg" from="entry" to="exit" end="5000.00" number="2000"/>
    <flow id="normal_1" type="normal_car" begin="0.00" departLane="1" departPos="0.00" departSpeed="avg" from="entry" to="exit" end="5000.00" number="2000"/>
    <flow id="normal_0" type="normal_car" begin="0.00" departLane="0" departPos="0.00" departSpeed="avg" from="entry" to="exit" end="5000.00" number="2000"/>
    <flow id="truck_flow" type="truck_with_trailer" begin="0.00" departLane="0" departSpeed="avg" from="entry" to="exit" end="5000.00" number="1000"/>
</routes>
