<?xml version="1.0" encoding="UTF-8"?>

<!-- generated on 2024-10-13 17:59:51 by Eclipse SUMO netedit Version 1.20.0
<configuration xmlns:xsi="http://www.w3.org/2001/XMLSchema-instance" xsi:noNamespaceSchemaLocation="http://sumo.dlr.de/xsd/neteditConfiguration.xsd">

    <input>
        <sumo-net-file value="C:\Users\nieder\Documents\Uni\Masterarbeit\Projekt\VerkehrsflussoptimierungDurchCarToCarCommunication\src\main\sumo\liegengebliebenes_fahrzeug\network.net.xml"/>
    </input>

    <output>
        <output-file value="C:\Users\nieder\Documents\Uni\Masterarbeit\Projekt\VerkehrsflussoptimierungDurchCarToCarCommunication\src\main\sumo\liegengebliebenes_fahrzeug\network.net.xml"/>
    </output>

    <processing>
        <geometry.min-radius.fix.railways value="false"/>
        <geometry.max-grade.fix value="false"/>
        <offset.disable-normalization value="true"/>
        <lefthand value="0"/>
    </processing>

    <junctions>
        <no-turnarounds value="true"/>
        <junctions.corner-detail value="5"/>
        <junctions.limit-turn-speed value="36.00"/>
        <rectangular-lane-cut value="0"/>
    </junctions>

    <pedestrian>
        <walkingareas value="0"/>
    </pedestrian>

</configuration>
-->

<net version="1.20" junctionCornerDetail="5" limitTurnSpeed="36.00" xmlns:xsi="http://www.w3.org/2001/XMLSchema-instance" xsi:noNamespaceSchemaLocation="http://sumo.dlr.de/xsd/net_file.xsd">

    <location netOffset="0.00,0.00" convBoundary="-425.06,69.15,2371.75,71.53" origBoundary="-10000000000.00,-10000000000.00,10000000000.00,10000000000.00" projParameter="!"/>

    <edge id=":J2_0" function="internal">
        <lane id=":J2_0_0" index="0" speed="36.00" length="0.30" shape="-323.62,61.86 -323.31,61.86"/>
        <lane id=":J2_0_1" index="1" speed="36.00" length="0.30" shape="-323.62,65.06 -323.32,65.06"/>
        <lane id=":J2_0_2" index="2" speed="36.00" length="0.30" shape="-323.62,68.26 -323.32,68.26"/>
    </edge>
    <edge id=":J3_0" function="internal">
        <lane id=":J3_0_0" index="0" speed="36.00" length="7.98" shape="1370.09,64.91 1378.09,64.94"/>
        <lane id=":J3_0_1" index="1" speed="36.00" length="7.98" shape="1370.10,68.11 1378.06,68.14"/>
    </edge>
    <edge id=":J4_0" function="internal">
        <lane id=":J4_0_0" index="0" speed="36.00" length="8.54" shape="1386.23,65.02 1388.68,64.54 1390.22,63.46 1391.76,62.36 1394.21,61.86"/>
        <lane id=":J4_0_1" index="1" speed="36.00" length="8.54" shape="1386.20,68.22 1388.66,67.74 1390.20,66.66 1391.75,65.56 1394.21,65.06"/>
        <lane id=":J4_0_2" index="2" speed="36.00" length="8.54" shape="1386.20,68.22 1394.21,68.26"/>
    </edge>

    <edge id="E1" from="J2" to="J3" priority="-1" shape="-323.47,69.86 545.72,71.53 1374.08,69.70">
        <lane id="E1_0" index="0" speed="36.00" length="1693.41" shape="-323.31,61.86 545.72,63.53 1370.09,61.71"/>
        <lane id="E1_1" index="1" speed="36.00" length="1693.41" shape="-323.32,65.06 545.72,66.73 1370.09,64.91"/>
        <lane id="E1_2" index="2" speed="36.00" length="1693.41" shape="-323.32,68.26 545.72,69.93 1370.10,68.11"/>
    </edge>
    <edge id="E2" from="J3" to="J4" priority="-1" shape="1374.08,69.70 1390.20,69.86">
        <lane id="E2_0" index="0" speed="36.00" length="8.13" shape="1378.09,64.94 1386.23,65.02"/>
        <lane id="E2_1" index="1" speed="36.00" length="8.13" shape="1378.06,68.14 1386.20,68.22"/>
    </edge>
    <edge id="entry" from="J1" to="J2" priority="-1">
        <lane id="entry_0" index="0" speed="36.00" length="101.44" shape="-425.06,61.86 -323.62,61.86"/>
        <lane id="entry_1" index="1" speed="36.00" length="101.44" shape="-425.06,65.06 -323.62,65.06"/>
        <lane id="entry_2" index="2" speed="36.00" length="101.44" shape="-425.06,68.26 -323.62,68.26"/>
    </edge>
    <edge id="exit" from="J4" to="J5" priority="-1" shape="1390.20,69.86 2371.75,70.07">
        <lane id="exit_0" index="0" speed="36.00" length="977.54" shape="1394.21,61.86 2371.75,62.07"/>
        <lane id="exit_1" index="1" speed="36.00" length="977.54" shape="1394.21,65.06 2371.75,65.27"/>
        <lane id="exit_2" index="2" speed="36.00" length="977.54" shape="1394.21,68.26 2371.75,68.47"/>
    </edge>

    <junction id="J1" type="dead_end" x="-425.06" y="69.86" incLanes="" intLanes="" shape="-425.06,69.86 -425.06,60.26"/>
    <junction id="J2" type="priority" x="-323.47" y="69.86" incLanes="entry_0 entry_1 entry_2" intLanes=":J2_0_0 :J2_0_1 :J2_0_2" shape="-323.32,69.86 -323.31,60.26 -323.62,60.26 -323.62,69.86">
        <request index="0" response="000" foes="000" cont="0"/>
        <request index="1" response="000" foes="000" cont="0"/>
        <request index="2" response="000" foes="000" cont="0"/>
    </junction>
    <junction id="J3" type="priority" x="1374.08" y="69.70" incLanes="E1_0 E1_1 E1_2" intLanes=":J3_0_0 :J3_0_1" shape="1378.05,69.74 1378.11,63.34 1375.07,62.48 1374.10,61.70 1373.13,60.93 1371.88,60.34 1370.08,60.11 1370.10,69.71">
        <request index="0" response="00" foes="00" cont="0"/>
        <request index="1" response="00" foes="00" cont="0"/>
    </junction>
    <junction id="J4" type="priority" x="1390.91" y="69.15" incLanes="E2_0 E2_1" intLanes=":J4_0_0 :J4_0_1 :J4_0_2" shape="1394.21,69.86 1394.22,60.26 1391.20,61.09 1390.23,61.86 1389.26,62.62 1388.02,63.20 1386.24,63.42 1386.18,69.82">
        <request index="0" response="000" foes="000" cont="0"/>
        <request index="1" response="000" foes="000" cont="0"/>
        <request index="2" response="000" foes="000" cont="0"/>
    </junction>
    <junction id="J5" type="dead_end" x="2371.75" y="70.07" incLanes="exit_0 exit_1 exit_2" intLanes="" shape="2371.75,60.47 2371.75,70.07"/>

    <connection from="E1" to="E2" fromLane="1" toLane="0" via=":J3_0_0" dir="s" state="M"/>
    <connection from="E1" to="E2" fromLane="2" toLane="1" via=":J3_0_1" dir="s" state="M"/>
    <connection from="E2" to="exit" fromLane="0" toLane="0" via=":J4_0_0" dir="s" state="M"/>
    <connection from="E2" to="exit" fromLane="1" toLane="1" via=":J4_0_1" dir="s" state="M"/>
    <connection from="E2" to="exit" fromLane="1" toLane="2" via=":J4_0_2" dir="s" state="M"/>
    <connection from="entry" to="E1" fromLane="0" toLane="0" via=":J2_0_0" dir="s" state="M"/>
    <connection from="entry" to="E1" fromLane="1" toLane="1" via=":J2_0_1" dir="s" state="M"/>
    <connection from="entry" to="E1" fromLane="2" toLane="2" via=":J2_0_2" dir="s" state="M"/>

    <connection from=":J2_0" to="E1" fromLane="0" toLane="0" dir="s" state="M"/>
    <connection from=":J2_0" to="E1" fromLane="1" toLane="1" dir="s" state="M"/>
    <connection from=":J2_0" to="E1" fromLane="2" toLane="2" dir="s" state="M"/>
    <connection from=":J3_0" to="E2" fromLane="0" toLane="0" dir="s" state="M"/>
    <connection from=":J3_0" to="E2" fromLane="1" toLane="1" dir="s" state="M"/>
    <connection from=":J4_0" to="exit" fromLane="0" toLane="0" dir="s" state="M"/>
    <connection from=":J4_0" to="exit" fromLane="1" toLane="1" dir="s" state="M"/>
    <connection from=":J4_0" to="exit" fromLane="2" toLane="2" dir="s" state="M"/>

</net>
