<?xml version="1.0" encoding="UTF-8"?>

<!-- generated on 2024-10-02 20:40:24 by Eclipse SUMO netedit Version 1.20.0
<configuration xmlns:xsi="http://www.w3.org/2001/XMLSchema-instance" xsi:noNamespaceSchemaLocation="http://sumo.dlr.de/xsd/neteditConfiguration.xsd">

    <input>
        <sumo-net-file value="C:\Users\nieder\Documents\Uni\Masterarbeit\Projekt\VerkehrsflussoptimierungDurchCarToCarCommunication\src\main\sumo\dreispurige_autobahn\network.net.xml"/>
    </input>

    <output>
        <output-file value="C:\Users\nieder\Documents\Uni\Masterarbeit\Projekt\VerkehrsflussoptimierungDurchCarToCarCommunication\src\main\sumo\dreispurige_autobahn\network.net.xml"/>
        <output.street-names value="true"/>
    </output>

    <processing>
        <geometry.min-radius.fix.railways value="false"/>
        <geometry.max-grade.fix value="false"/>
        <offset.disable-normalization value="true"/>
        <lefthand value="0"/>
    </processing>

    <junctions>
        <no-turnarounds value="true"/>
        <junctions.corner-detail value="5"/>
        <junctions.limit-turn-speed value="5.50"/>
        <rectangular-lane-cut value="0"/>
    </junctions>

    <pedestrian>
        <walkingareas value="0"/>
    </pedestrian>

</configuration>
-->

<net version="1.20" junctionCornerDetail="5" limitTurnSpeed="5.50" xmlns:xsi="http://www.w3.org/2001/XMLSchema-instance" xsi:noNamespaceSchemaLocation="http://sumo.dlr.de/xsd/net_file.xsd">

    <location netOffset="0.00,0.00" convBoundary="-693.78,-481.62,451.11,-73.68" origBoundary="-10000000000.00,-10000000000.00,10000000000.00,10000000000.00" projParameter="!"/>

    <edge id=":J0_0" function="internal">
        <lane id=":J0_0_0" index="0" speed="13.89" length="0.63" shape="324.36,-209.75 324.30,-209.75 324.26,-209.76 324.21,-209.76 324.15,-209.76"/>
        <lane id=":J0_0_1" index="1" speed="13.89" length="0.63" shape="324.79,-212.92 324.60,-212.94 324.47,-212.96 324.34,-212.96 324.16,-212.96"/>
        <lane id=":J0_0_2" index="2" speed="13.89" length="0.63" shape="325.22,-216.09 324.91,-216.13 324.69,-216.15 324.48,-216.16 324.16,-216.16"/>
    </edge>
    <edge id=":J14_0" function="internal">
        <lane id=":J14_0_0" index="0" speed="33.30" length="0.31" shape="330.69,-82.84 330.79,-82.84"/>
        <lane id=":J14_0_1" index="1" speed="33.30" length="0.31" shape="330.69,-79.64 331.00,-79.65"/>
        <lane id=":J14_0_2" index="2" speed="33.30" length="0.31" shape="330.70,-76.44 331.22,-76.46"/>
    </edge>
    <edge id=":J15_0" function="internal">
        <lane id=":J15_0_0" index="0" speed="23.59" length="0.45" shape="436.44,-134.19 436.49,-134.26 436.52,-134.31 436.55,-134.37 436.58,-134.45"/>
        <lane id=":J15_0_1" index="1" speed="23.59" length="0.45" shape="439.35,-132.81 439.41,-132.92 439.45,-133.01 439.48,-133.09 439.53,-133.22"/>
        <lane id=":J15_0_2" index="2" speed="23.59" length="0.45" shape="442.23,-131.43 442.48,-131.98"/>
    </edge>
    <edge id=":J17_0" function="internal">
        <lane id=":J17_0_0" index="0" speed="23.59" length="1.01" shape="-513.36,-211.31 -513.86,-211.31 -514.20,-211.33 -514.54,-211.39 -515.03,-211.49"/>
        <lane id=":J17_0_1" index="1" speed="23.59" length="1.01" shape="-513.36,-214.51 -513.66,-214.51 -513.86,-214.52 -514.06,-214.56 -514.36,-214.62"/>
        <lane id=":J17_0_2" index="2" speed="23.59" length="1.01" shape="-513.35,-217.71 -513.45,-217.71 -513.52,-217.71 -513.59,-217.73 -513.69,-217.75"/>
    </edge>
    <edge id=":J18_0" function="internal">
        <lane id=":J18_0_0" index="0" speed="7.45" length="19.72" shape="-657.73,-242.07 -662.51,-244.49 -664.64,-248.45 -663.92,-252.88 -660.19,-256.73"/>
        <lane id=":J18_0_1" index="1" speed="6.54" length="14.82" shape="-657.06,-245.20 -661.59,-246.70 -663.34,-248.66 -662.33,-251.10 -658.53,-254.00"/>
        <lane id=":J18_0_2" index="2" speed="4.15" length="4.94" shape="-656.39,-248.33 -657.90,-248.83 -658.48,-249.48 -658.14,-250.29 -656.88,-251.26"/>
    </edge>
    <edge id=":J19_0" function="internal">
        <lane id=":J19_0_0" index="0" speed="9.47" length="2.65" shape="-529.94,-335.53 -528.82,-336.19 -527.98,-336.53 -527.08,-336.67 -525.78,-336.69"/>
        <lane id=":J19_0_1" index="1" speed="7.45" length="2.65" shape="-528.28,-332.80 -527.61,-333.19 -527.11,-333.40 -526.57,-333.48 -525.79,-333.49"/>
        <lane id=":J19_0_2" index="2" speed="33.30" length="2.65" shape="-526.63,-330.06 -526.40,-330.19 -526.24,-330.26 -526.06,-330.29 -525.80,-330.29"/>
    </edge>
    <edge id=":J20_0" function="internal">
        <lane id=":J20_0_0" index="0" speed="33.30" length="0.45" shape="328.11,-334.59 328.15,-334.59 328.18,-334.59 328.21,-334.59 328.26,-334.60"/>
        <lane id=":J20_0_1" index="1" speed="33.30" length="0.45" shape="328.10,-331.39 328.23,-331.39 328.32,-331.39 328.41,-331.40 328.55,-331.41"/>
        <lane id=":J20_0_2" index="2" speed="33.30" length="0.45" shape="328.09,-328.19 328.31,-328.19 328.46,-328.19 328.61,-328.20 328.83,-328.22"/>
    </edge>
    <edge id=":J21_0" function="internal">
        <lane id=":J21_0_0" index="0" speed="4.72" length="1.44" shape="443.00,-401.50 443.05,-402.11 442.80,-402.60 442.37,-403.05 441.88,-403.55"/>
        <lane id=":J21_0_1" index="1" speed="20.85" length="1.44" shape="446.18,-402.97 446.03,-403.35 445.90,-403.59 445.74,-403.83 445.50,-404.15"/>
        <lane id=":J21_0_2" index="2" speed="33.30" length="1.44" shape="449.09,-404.32 449.05,-404.44 449.01,-404.52 448.98,-404.60 448.91,-404.72"/>
    </edge>
    <edge id=":J22_0" function="internal">
        <lane id=":J22_0_0" index="0" speed="33.30" length="1.02" shape="339.79,-471.50 339.69,-471.52 339.62,-471.53 339.55,-471.53 339.45,-471.53"/>
        <lane id=":J22_0_1" index="1" speed="33.30" length="1.02" shape="340.47,-474.62 340.18,-474.69 339.97,-474.72 339.76,-474.73 339.46,-474.73"/>
        <lane id=":J22_0_2" index="2" speed="33.30" length="1.02" shape="341.15,-477.75 340.66,-477.87 340.32,-477.92 339.97,-477.93 339.47,-477.93"/>
    </edge>
    <edge id=":J23_0" function="internal">
        <lane id=":J23_0_0" index="0" speed="33.30" length="0.29" shape="-539.32,-473.62 -539.57,-473.62"/>
        <lane id=":J23_0_1" index="1" speed="33.30" length="0.29" shape="-539.31,-476.82 -539.60,-476.82"/>
        <lane id=":J23_0_2" index="2" speed="33.30" length="0.29" shape="-539.30,-480.02 -539.63,-480.02"/>
    </edge>

    <edge id="E0" from="J15" to="J0" priority="-1" shape="443.85,-131.10 444.31,-132.20 444.72,-133.30 445.08,-134.41 445.39,-135.53 445.64,-136.64 445.85,-137.76 446.00,-138.89 446.11,-140.01 446.16,-141.14 446.17,-142.27 446.13,-143.41 446.05,-144.54 445.91,-145.68 445.73,-146.81 445.51,-147.95 445.24,-149.09 444.92,-150.23 444.56,-151.37 444.16,-152.51 443.72,-153.65 443.23,-154.79 442.70,-155.92 442.13,-157.06 441.52,-158.19 440.87,-159.33 440.17,-160.46 439.44,-161.58 438.67,-162.71 437.87,-163.83 437.02,-164.95 436.14,-166.07 435.22,-167.18 434.26,-168.29 433.27,-169.39 432.25,-170.49 431.19,-171.58 430.09,-172.67 428.97,-173.75 427.81,-174.83 426.61,-175.90 425.39,-176.97 424.14,-178.03 422.85,-179.08 421.53,-180.12 420.19,-181.16 418.81,-182.19 417.41,-183.21 415.98,-184.22 414.52,-185.23 413.03,-186.23 411.52,-187.21 409.98,-188.19 408.42,-189.16 406.83,-190.12 405.22,-191.07 403.58,-192.00 401.93,-192.93 400.24,-193.85 398.54,-194.75 396.81,-195.64 395.07,-196.52 393.30,-197.39 391.51,-198.25 389.70,-199.09 387.88,-199.93 386.03,-200.74 384.17,-201.55 382.29,-202.34 380.40,-203.12 378.48,-203.88 376.56,-204.63 374.61,-205.36 372.66,-206.08 370.68,-206.78 368.70,-207.46 366.70,-208.14 364.69,-208.79 362.66,-209.43 360.63,-210.05 358.58,-210.65 356.53,-211.24 354.46,-211.81 352.39,-212.36 350.30,-212.89 348.21,-213.40 346.11,-213.90 344.00,-214.38 341.89,-214.83 339.77,-215.27 337.64,-215.69 335.51,-216.09 333.38,-216.46 331.24,-216.82 329.09,-217.15 326.95,-217.47 324.80,-217.76">
        <lane id="E0_0" index="0" speed="13.89" length="153.32" shape="436.58,-134.45 436.87,-135.14 437.17,-135.93 437.42,-136.71 437.63,-137.48 437.80,-138.26 437.95,-139.02 438.05,-139.81 438.13,-140.58 438.16,-141.35 438.17,-142.16 438.14,-142.99 438.09,-143.77 437.99,-144.56 437.85,-145.42 437.69,-146.27 437.50,-147.09 437.25,-147.94 436.97,-148.84 436.65,-149.74 436.31,-150.63 435.93,-151.51 435.50,-152.43 435.03,-153.37 434.53,-154.31 433.99,-155.24 433.42,-156.17 432.78,-157.14 432.11,-158.13 431.43,-159.09 430.69,-160.06 429.91,-161.05 429.11,-162.01 428.26,-163.00 427.36,-163.99 426.45,-164.98 425.51,-165.95 424.50,-166.95 423.47,-167.94 422.42,-168.92 421.31,-169.91 420.17,-170.91 419.03,-171.88 417.85,-172.84 416.60,-173.82 415.35,-174.79 414.06,-175.75 412.75,-176.71 411.40,-177.66 410.02,-178.62 408.62,-179.55 407.20,-180.48 405.72,-181.42 404.24,-182.34 402.73,-183.25 401.21,-184.15 399.64,-185.04 398.05,-185.93 396.46,-186.80 394.84,-187.66 393.17,-188.51 391.50,-189.36 389.80,-190.19 388.09,-191.02 386.34,-191.83 384.60,-192.63 382.83,-193.41 381.02,-194.19 379.21,-194.95 377.40,-195.70 375.55,-196.43 373.70,-197.16 371.82,-197.86 369.94,-198.56 368.05,-199.23 366.11,-199.89 364.18,-200.55 362.26,-201.17 360.29,-201.79 358.34,-202.39 356.35,-202.97 354.36,-203.54 352.37,-204.09 350.38,-204.62 348.37,-205.13 346.34,-205.62 344.30,-206.11 342.28,-206.57 340.24,-207.00 338.18,-207.43 336.13,-207.83 334.09,-208.22 332.03,-208.57 329.97,-208.92 327.89,-209.24 325.82,-209.55 324.36,-209.75"/>
        <lane id="E0_1" index="1" speed="13.89" length="153.32" shape="439.53,-133.22 439.85,-133.97 440.19,-134.88 440.48,-135.79 440.73,-136.70 440.94,-137.61 441.11,-138.52 441.23,-139.44 441.32,-140.35 441.36,-141.27 441.37,-142.21 441.34,-143.16 441.27,-144.08 441.16,-145.01 441.00,-145.98 440.82,-146.94 440.59,-147.89 440.32,-148.86 440.01,-149.85 439.66,-150.85 439.28,-151.84 438.85,-152.82 438.38,-153.83 437.87,-154.85 437.32,-155.86 436.74,-156.88 436.12,-157.89 435.45,-158.92 434.73,-159.96 434.01,-160.98 433.22,-162.02 432.40,-163.06 431.56,-164.08 430.66,-165.11 429.73,-166.15 428.77,-167.18 427.78,-168.20 426.73,-169.24 425.67,-170.27 424.58,-171.28 423.43,-172.30 422.26,-173.33 421.07,-174.34 419.85,-175.33 418.57,-176.34 417.28,-177.34 415.96,-178.33 414.61,-179.31 413.23,-180.29 411.82,-181.26 410.39,-182.22 408.93,-183.17 407.42,-184.13 405.91,-185.07 404.37,-186.00 402.82,-186.92 401.22,-187.82 399.60,-188.73 397.97,-189.62 396.32,-190.49 394.63,-191.36 392.93,-192.22 391.20,-193.07 389.46,-193.91 387.68,-194.73 385.91,-195.55 384.11,-196.34 382.28,-197.14 380.44,-197.91 378.60,-198.67 376.72,-199.41 374.85,-200.15 372.94,-200.86 371.03,-201.57 369.10,-202.25 367.15,-202.92 365.19,-203.58 363.23,-204.22 361.24,-204.85 359.25,-205.45 357.24,-206.04 355.23,-206.62 353.21,-207.18 351.18,-207.71 349.14,-208.23 347.09,-208.73 345.02,-209.22 342.97,-209.69 340.90,-210.13 338.82,-210.57 336.73,-210.98 334.66,-211.37 332.57,-211.73 330.48,-212.08 328.37,-212.40 326.27,-212.72 324.79,-212.92"/>
        <lane id="E0_2" index="2" speed="13.89" length="153.32" shape="442.48,-131.98 442.82,-132.79 443.21,-133.83 443.55,-134.87 443.84,-135.92 444.07,-136.96 444.27,-138.01 444.41,-139.07 444.51,-140.12 444.56,-141.18 444.57,-142.25 444.53,-143.33 444.46,-144.39 444.33,-145.46 444.15,-146.53 443.95,-147.61 443.69,-148.69 443.39,-149.77 443.04,-150.86 442.66,-151.96 442.24,-153.05 441.77,-154.13 441.26,-155.22 440.71,-156.32 440.12,-157.41 439.49,-158.51 438.82,-159.60 438.11,-160.69 437.36,-161.79 436.58,-162.88 435.75,-163.97 434.89,-165.07 434.00,-166.15 433.06,-167.23 432.09,-168.31 431.09,-169.39 430.05,-170.45 428.97,-171.53 427.87,-172.59 426.73,-173.65 425.55,-174.70 424.35,-175.76 423.12,-176.80 421.85,-177.83 420.54,-178.86 419.22,-179.89 417.86,-180.90 416.48,-181.91 415.06,-182.91 413.62,-183.91 412.15,-184.89 410.66,-185.86 409.13,-186.84 407.58,-187.80 406.01,-188.75 404.42,-189.69 402.79,-190.61 401.15,-191.53 399.48,-192.44 397.80,-193.33 396.08,-194.21 394.36,-195.09 392.60,-195.95 390.83,-196.80 389.03,-197.64 387.22,-198.47 385.39,-199.27 383.54,-200.08 381.67,-200.86 379.80,-201.64 377.89,-202.39 375.99,-203.14 374.05,-203.86 372.12,-204.58 370.15,-205.27 368.18,-205.95 366.20,-206.62 364.20,-207.27 362.19,-207.90 360.17,-208.52 358.13,-209.11 356.10,-209.70 354.04,-210.27 351.99,-210.81 349.91,-211.34 347.84,-211.84 345.75,-212.34 343.66,-212.82 341.56,-213.26 339.45,-213.70 337.34,-214.12 335.23,-214.52 333.11,-214.88 330.99,-215.24 328.85,-215.57 326.72,-215.89 325.22,-216.09"/>
    </edge>
    <edge id="E1" from="J0" to="J17" priority="-1">
        <lane id="E1_0" index="0" speed="13.89" length="837.52" shape="324.15,-209.76 -513.36,-211.31"/>
        <lane id="E1_1" index="1" speed="13.89" length="837.52" shape="324.16,-212.96 -513.36,-214.51"/>
        <lane id="E1_2" index="2" speed="13.89" length="837.52" shape="324.16,-216.16 -513.35,-217.71"/>
    </edge>
    <edge id="E12" from="J17" to="J18" priority="-1">
        <lane id="E12_0" index="0" speed="33.30" length="145.94" shape="-515.03,-211.49 -657.73,-242.07"/>
        <lane id="E12_1" index="1" speed="33.30" length="145.94" shape="-514.36,-214.62 -657.06,-245.20"/>
        <lane id="E12_2" index="2" speed="33.30" length="145.94" shape="-513.69,-217.75 -656.39,-248.33"/>
    </edge>
    <edge id="E13" from="J18" to="J19" priority="-1">
        <lane id="E13_0" index="0" speed="33.30" length="152.23" shape="-660.19,-256.73 -529.94,-335.53"/>
        <lane id="E13_1" index="1" speed="33.30" length="152.23" shape="-658.53,-254.00 -528.28,-332.80"/>
        <lane id="E13_2" index="2" speed="33.30" length="152.23" shape="-656.88,-251.26 -526.63,-330.06"/>
    </edge>
    <edge id="E14" from="J19" to="J20" priority="-1">
        <lane id="E14_0" index="0" speed="33.30" length="853.89" shape="-525.78,-336.69 328.11,-334.59"/>
        <lane id="E14_1" index="1" speed="33.30" length="853.89" shape="-525.79,-333.49 328.10,-331.39"/>
        <lane id="E14_2" index="2" speed="33.30" length="853.89" shape="-525.80,-330.29 328.09,-328.19"/>
    </edge>
    <edge id="E15" from="J20" to="J21" priority="-1" shape="328.53,-326.59 329.85,-326.71 331.22,-326.88 332.64,-327.08 334.09,-327.33 335.59,-327.62 337.13,-327.95 338.70,-328.31 340.31,-328.72 341.96,-329.16 343.64,-329.63 345.35,-330.14 347.09,-330.69 348.86,-331.27 350.66,-331.88 352.48,-332.52 354.33,-333.20 356.20,-333.90 358.09,-334.63 360.00,-335.39 361.93,-336.18 363.87,-336.99 365.83,-337.83 367.80,-338.70 369.78,-339.59 371.78,-340.50 373.78,-341.43 375.78,-342.39 377.80,-343.36 379.81,-344.36 381.83,-345.37 383.85,-346.41 385.87,-347.45 387.89,-348.52 389.90,-349.60 391.90,-350.70 393.90,-351.80 395.89,-352.93 397.87,-354.06 399.84,-355.20 401.80,-356.36 403.74,-357.52 405.66,-358.69 407.56,-359.87 409.45,-361.06 411.31,-362.25 413.15,-363.45 414.97,-364.65 416.76,-365.86 418.52,-367.07 420.26,-368.28 421.96,-369.49 423.63,-370.70 425.27,-371.91 426.87,-373.11 428.44,-374.32 429.97,-375.52 431.46,-376.72 432.90,-377.91 434.30,-379.10 435.66,-380.27 436.97,-381.45 438.24,-382.61 439.45,-383.76 440.62,-384.90 441.73,-386.03 442.79,-387.15 443.79,-388.26 444.73,-389.35 445.62,-390.43 446.45,-391.49 447.21,-392.54 447.91,-393.57 448.55,-394.58 449.12,-395.57 449.62,-396.54 450.05,-397.50 450.41,-398.43 450.70,-399.33 450.91,-400.22 451.05,-401.08 451.11,-401.91 451.09,-402.72 451.00,-403.51 450.81,-404.26 450.55,-404.99">
        <lane id="E15_0" index="0" speed="33.30" length="141.76" shape="328.26,-334.60 328.99,-334.66 330.17,-334.81 331.40,-334.98 332.65,-335.20 333.99,-335.46 335.40,-335.76 336.82,-336.09 338.29,-336.46 339.85,-336.88 341.42,-337.32 343.00,-337.79 344.64,-338.31 346.33,-338.86 348.05,-339.44 349.77,-340.05 351.55,-340.70 353.36,-341.38 355.17,-342.08 357.01,-342.81 358.87,-343.57 360.75,-344.36 362.64,-345.17 364.54,-346.01 366.48,-346.88 368.44,-347.77 370.36,-348.66 372.32,-349.60 374.29,-350.55 376.24,-351.52 378.21,-352.50 380.19,-353.52 382.17,-354.54 384.12,-355.58 386.08,-356.63 388.04,-357.71 390.00,-358.78 391.93,-359.88 393.88,-361.00 395.80,-362.10 397.71,-363.24 399.61,-364.37 401.47,-365.50 403.32,-366.65 405.16,-367.81 406.97,-368.97 408.76,-370.14 410.53,-371.30 412.25,-372.47 413.97,-373.65 415.66,-374.82 417.29,-375.99 418.91,-377.16 420.50,-378.33 422.03,-379.48 423.53,-380.64 424.99,-381.78 426.40,-382.92 427.76,-384.04 429.10,-385.18 430.37,-386.28 431.60,-387.38 432.79,-388.46 433.90,-389.52 434.98,-390.57 435.97,-391.58 436.91,-392.58 437.79,-393.55 438.61,-394.51 439.38,-395.44 440.06,-396.30 440.66,-397.14 441.22,-397.96 441.71,-398.72 442.10,-399.40 442.41,-400.01 442.67,-400.59 442.87,-401.11 443.00,-401.50"/>
        <lane id="E15_1" index="1" speed="33.30" length="141.76" shape="328.55,-331.41 329.34,-331.48 330.59,-331.64 331.90,-331.82 333.23,-332.05 334.63,-332.32 336.09,-332.64 337.57,-332.98 339.10,-333.36 340.69,-333.79 342.31,-334.24 343.94,-334.73 345.62,-335.26 347.34,-335.82 349.09,-336.42 350.86,-337.04 352.66,-337.70 354.49,-338.39 356.34,-339.10 358.20,-339.84 360.10,-340.62 362.00,-341.41 363.91,-342.23 365.85,-343.08 367.80,-343.96 369.77,-344.86 371.73,-345.77 373.70,-346.72 375.69,-347.67 377.67,-348.66 379.66,-349.65 381.65,-350.68 383.65,-351.70 385.63,-352.76 387.61,-353.82 389.59,-354.91 391.56,-355.99 393.52,-357.10 395.48,-358.22 397.42,-359.34 399.35,-360.49 401.26,-361.63 403.14,-362.78 405.02,-363.94 406.88,-365.11 408.71,-366.28 410.52,-367.46 412.30,-368.64 414.06,-369.83 415.79,-371.02 417.50,-372.21 419.16,-373.39 420.80,-374.57 422.41,-375.76 423.96,-376.93 425.49,-378.11 426.98,-379.28 428.43,-380.44 429.82,-381.59 431.18,-382.75 432.49,-383.87 433.75,-385.01 434.97,-386.12 436.12,-387.22 437.23,-388.30 438.28,-389.36 439.26,-390.41 440.19,-391.43 441.06,-392.44 441.88,-393.44 442.62,-394.38 443.28,-395.30 443.90,-396.21 444.44,-397.06 444.91,-397.87 445.30,-398.62 445.62,-399.35 445.89,-400.04 446.08,-400.62 446.20,-401.16 446.28,-401.64 446.31,-402.03 446.30,-402.39 446.27,-402.65 446.22,-402.86 446.18,-402.97"/>
        <lane id="E15_2" index="2" speed="33.30" length="141.76" shape="328.83,-328.22 329.68,-328.30 331.01,-328.47 332.39,-328.66 333.80,-328.90 335.27,-329.19 336.78,-329.51 338.32,-329.87 339.91,-330.27 341.54,-330.70 343.20,-331.17 344.88,-331.67 346.60,-332.21 348.35,-332.79 350.14,-333.39 351.94,-334.03 353.77,-334.70 355.63,-335.40 357.51,-336.12 359.40,-336.87 361.32,-337.66 363.25,-338.46 365.19,-339.30 367.15,-340.16 369.12,-341.05 371.11,-341.95 373.10,-342.88 375.09,-343.83 377.10,-344.80 379.10,-345.79 381.11,-346.80 383.12,-347.83 385.13,-348.87 387.14,-349.93 389.14,-351.01 391.13,-352.10 393.12,-353.20 395.10,-354.32 397.07,-355.45 399.03,-356.58 400.98,-357.74 402.91,-358.89 404.82,-360.05 406.71,-361.23 408.59,-362.41 410.44,-363.59 412.27,-364.79 414.08,-365.98 415.86,-367.18 417.61,-368.39 419.34,-369.59 421.03,-370.79 422.69,-371.99 424.32,-373.19 425.90,-374.38 427.46,-375.58 428.97,-376.77 430.45,-377.96 431.87,-379.14 433.26,-380.32 434.60,-381.47 435.90,-382.64 437.15,-383.78 438.34,-384.91 439.49,-386.03 440.58,-387.14 441.61,-388.24 442.59,-389.32 443.51,-390.38 444.37,-391.43 445.17,-392.45 445.90,-393.46 446.57,-394.45 447.18,-395.41 447.72,-396.34 448.18,-397.23 448.57,-398.12 448.90,-398.97 449.16,-399.76 449.34,-400.53 449.46,-401.27 449.51,-401.95 449.49,-402.61 449.42,-403.22 449.28,-403.79 449.09,-404.32"/>
    </edge>
    <edge id="E16" from="J21" to="J22" priority="-1" shape="450.55,-404.99 450.30,-405.53 449.96,-406.13 449.52,-406.79 449.00,-407.50 448.39,-408.25 447.69,-409.06 446.92,-409.92 446.06,-410.82 445.13,-411.76 444.12,-412.75 443.05,-413.77 441.90,-414.83 440.68,-415.93 439.40,-417.07 438.06,-418.24 436.66,-419.43 435.20,-420.66 433.69,-421.92 432.13,-423.20 430.51,-424.50 428.85,-425.82 427.14,-427.17 425.39,-428.53 423.60,-429.91 421.77,-431.31 419.90,-432.71 418.00,-434.13 416.07,-435.56 414.12,-436.99 412.13,-438.43 410.13,-439.88 408.10,-441.32 406.06,-442.77 403.99,-444.21 401.92,-445.65 399.83,-447.09 397.74,-448.52 395.63,-449.93 393.53,-451.34 391.42,-452.74 389.31,-454.12 387.21,-455.48 385.11,-456.83 383.02,-458.15 380.94,-459.46 378.88,-460.74 376.82,-462.00 374.79,-463.22 372.78,-464.42 370.79,-465.59 368.82,-466.73 366.89,-467.83 364.98,-468.90 363.10,-469.92 361.26,-470.91 359.46,-471.86 357.69,-472.76 355.97,-473.62 354.30,-474.42 352.66,-475.19 351.08,-475.90 349.55,-476.55 348.08,-477.16 346.66,-477.70 345.30,-478.19 344.00,-478.62 342.77,-478.99 341.60,-479.29 340.50,-479.53">
        <lane id="E16_0" index="0" speed="33.30" length="127.28" shape="441.88,-403.55 441.69,-403.77 441.05,-404.48 440.33,-405.24 439.49,-406.09 438.56,-407.00 437.58,-407.93 436.51,-408.92 435.34,-409.97 434.11,-411.07 432.84,-412.18 431.49,-413.32 430.06,-414.53 428.59,-415.76 427.09,-416.99 425.52,-418.25 423.88,-419.55 422.21,-420.87 420.49,-422.20 418.73,-423.57 416.94,-424.93 415.11,-426.30 413.22,-427.71 411.32,-429.12 409.41,-430.52 407.44,-431.95 405.47,-433.38 403.47,-434.80 401.46,-436.23 399.42,-437.64 397.37,-439.07 395.30,-440.49 393.26,-441.89 391.18,-443.28 389.09,-444.69 387.02,-446.06 384.95,-447.41 382.87,-448.76 380.81,-450.08 378.75,-451.38 376.70,-452.68 374.68,-453.93 372.67,-455.16 370.68,-456.36 368.70,-457.54 366.76,-458.68 364.84,-459.79 362.95,-460.87 361.12,-461.89 359.30,-462.88 357.50,-463.85 355.78,-464.76 354.09,-465.62 352.45,-466.44 350.87,-467.19 349.32,-467.92 347.87,-468.57 346.45,-469.17 345.12,-469.73 343.88,-470.20 342.69,-470.63 341.59,-470.99 340.62,-471.28 339.79,-471.50"/>
        <lane id="E16_1" index="1" speed="33.30" length="127.28" shape="445.50,-404.15 445.20,-404.56 444.71,-405.16 444.09,-405.89 443.40,-406.66 442.62,-407.47 441.74,-408.36 440.78,-409.30 439.77,-410.27 438.67,-411.28 437.48,-412.36 436.23,-413.47 434.93,-414.60 433.56,-415.77 432.12,-416.98 430.63,-418.22 429.11,-419.47 427.51,-420.75 425.87,-422.06 424.18,-423.39 422.45,-424.73 420.68,-426.10 418.87,-427.48 417.02,-428.87 415.13,-430.28 413.22,-431.70 411.29,-433.11 409.31,-434.54 407.33,-435.98 405.32,-437.41 403.30,-438.84 401.25,-440.27 399.19,-441.70 397.11,-443.13 395.05,-444.54 392.96,-445.94 390.87,-447.35 388.78,-448.73 386.69,-450.10 384.61,-451.45 382.53,-452.78 380.46,-454.09 378.39,-455.39 376.36,-456.65 374.33,-457.90 372.32,-459.10 370.33,-460.29 368.37,-461.44 366.43,-462.57 364.53,-463.65 362.66,-464.70 360.82,-465.70 359.00,-466.67 357.25,-467.60 355.53,-468.47 353.86,-469.31 352.24,-470.08 350.66,-470.83 349.16,-471.50 347.69,-472.12 346.31,-472.70 344.99,-473.20 343.73,-473.65 342.55,-474.04 341.48,-474.37 340.47,-474.62"/>
        <lane id="E16_2" index="2" speed="33.30" length="127.28" shape="448.91,-404.72 448.60,-405.29 448.21,-405.87 447.73,-406.52 447.16,-407.22 446.49,-408.00 445.75,-408.83 444.91,-409.70 444.00,-410.63 443.01,-411.60 441.96,-412.60 440.82,-413.65 439.61,-414.74 438.34,-415.87 437.02,-417.03 435.63,-418.21 434.17,-419.43 432.67,-420.69 431.12,-421.96 429.51,-423.25 427.86,-424.57 426.15,-425.91 424.41,-427.26 422.63,-428.64 420.80,-430.03 418.94,-431.43 417.04,-432.85 415.12,-434.27 413.18,-435.70 411.19,-437.13 409.20,-438.58 407.17,-440.02 405.14,-441.46 403.08,-442.90 401.01,-444.33 398.92,-445.77 396.84,-447.19 394.74,-448.60 392.64,-450.01 390.54,-451.40 388.44,-452.78 386.34,-454.14 384.25,-455.48 382.17,-456.80 380.09,-458.10 378.04,-459.38 375.99,-460.63 373.97,-461.85 371.96,-463.04 369.98,-464.21 368.02,-465.34 366.10,-466.44 364.21,-467.50 362.34,-468.51 360.51,-469.50 358.72,-470.44 356.97,-471.33 355.27,-472.18 353.61,-472.97 351.99,-473.74 350.44,-474.43 348.93,-475.07 347.49,-475.67 346.10,-476.20 344.78,-476.68 343.52,-477.09 342.34,-477.45 341.15,-477.75"/>
    </edge>
    <edge id="E17" from="J22" to="J23" priority="-1">
        <lane id="E17_0" index="0" speed="33.30" length="878.77" shape="339.45,-471.53 -539.32,-473.62"/>
        <lane id="E17_1" index="1" speed="33.30" length="878.77" shape="339.46,-474.73 -539.31,-476.82"/>
        <lane id="E17_2" index="2" speed="33.30" length="878.77" shape="339.47,-477.93 -539.30,-480.02"/>
    </edge>
    <edge id="E9" from="J14" to="J15" priority="-1" shape="331.01,-74.84 332.82,-74.96 334.68,-75.13 336.57,-75.35 338.50,-75.63 340.46,-75.96 342.46,-76.34 344.49,-76.77 346.54,-77.24 348.62,-77.76 350.73,-78.32 352.85,-78.93 355.00,-79.57 357.16,-80.25 359.35,-80.97 361.54,-81.73 363.75,-82.52 365.96,-83.34 368.19,-84.20 370.42,-85.08 372.65,-85.99 374.89,-86.93 377.13,-87.89 379.36,-88.88 381.59,-89.89 383.81,-90.92 386.02,-91.97 388.23,-93.03 390.42,-94.11 392.59,-95.21 394.75,-96.31 396.89,-97.43 399.01,-98.56 401.11,-99.70 403.18,-100.84 405.22,-101.99 407.24,-103.14 409.22,-104.29 411.17,-105.44 413.09,-106.59 414.97,-107.74 416.81,-108.89 418.60,-110.03 420.36,-111.16 422.07,-112.28 423.73,-113.40 425.34,-114.50 426.90,-115.58 428.41,-116.66 429.86,-117.71 431.26,-118.75 432.59,-119.77 433.86,-120.77 435.07,-121.74 436.21,-122.69 437.29,-123.61 438.29,-124.51 439.23,-125.38 440.08,-126.22 440.87,-127.02 441.57,-127.79 442.20,-128.53 442.74,-129.23 443.20,-129.90 443.57,-130.52 443.85,-131.10">
        <lane id="E9_0" index="0" speed="33.30" length="122.57" shape="330.79,-82.84 332.19,-82.94 333.85,-83.09 335.53,-83.28 337.26,-83.53 339.05,-83.83 340.88,-84.18 342.77,-84.58 344.68,-85.02 346.62,-85.51 348.60,-86.03 350.60,-86.61 352.66,-87.22 354.71,-87.87 356.79,-88.55 358.88,-89.28 361.01,-90.04 363.13,-90.82 365.28,-91.65 367.44,-92.50 369.59,-93.38 371.77,-94.30 373.93,-95.22 376.09,-96.18 378.26,-97.16 380.41,-98.16 382.57,-99.19 384.73,-100.22 386.84,-101.27 388.97,-102.34 391.08,-103.42 393.15,-104.50 395.22,-105.61 397.27,-106.72 399.29,-107.83 401.28,-108.95 403.25,-110.08 405.18,-111.19 407.08,-112.32 408.95,-113.43 410.76,-114.54 412.54,-115.66 414.29,-116.77 416.01,-117.87 417.64,-118.94 419.24,-120.02 420.81,-121.09 422.30,-122.12 423.74,-123.15 425.13,-124.16 426.44,-125.14 427.68,-126.09 428.88,-127.03 430.01,-127.94 431.06,-128.81 432.02,-129.63 432.90,-130.42 433.70,-131.16 434.42,-131.88 435.07,-132.53 435.57,-133.08 435.99,-133.57 436.28,-133.95 436.44,-134.19"/>
        <lane id="E9_1" index="1" speed="33.30" length="122.57" shape="331.00,-79.65 332.44,-79.75 334.18,-79.90 335.95,-80.11 337.76,-80.37 339.61,-80.68 341.51,-81.05 343.46,-81.46 345.42,-81.91 347.42,-82.41 349.45,-82.95 351.50,-83.54 353.59,-84.16 355.69,-84.82 357.81,-85.52 359.95,-86.26 362.11,-87.03 364.26,-87.83 366.45,-88.67 368.63,-89.53 370.81,-90.43 373.02,-91.35 375.21,-92.29 377.40,-93.26 379.59,-94.25 381.77,-95.26 383.95,-96.30 386.13,-97.35 388.27,-98.40 390.42,-99.49 392.55,-100.58 394.65,-101.67 396.74,-102.79 398.81,-103.91 400.84,-105.03 402.85,-106.17 404.85,-107.30 406.80,-108.43 408.72,-109.57 410.60,-110.70 412.45,-111.82 414.25,-112.95 416.01,-114.07 417.75,-115.19 419.41,-116.28 421.03,-117.37 422.62,-118.46 424.14,-119.51 425.61,-120.56 427.02,-121.58 428.37,-122.58 429.65,-123.56 430.87,-124.53 432.03,-125.46 433.12,-126.36 434.13,-127.22 435.05,-128.06 435.91,-128.85 436.69,-129.61 437.39,-130.32 437.97,-130.96 438.47,-131.56 438.86,-132.06 439.16,-132.50 439.35,-132.81"/>
        <lane id="E9_2" index="2" speed="33.30" length="122.57" shape="331.22,-76.46 332.69,-76.56 334.51,-76.72 336.36,-76.94 338.25,-77.21 340.18,-77.53 342.14,-77.91 344.15,-78.33 346.17,-78.80 348.22,-79.31 350.30,-79.86 352.40,-80.47 354.53,-81.10 356.67,-81.77 358.84,-82.49 361.01,-83.24 363.20,-84.02 365.39,-84.84 367.61,-85.69 369.82,-86.56 372.04,-87.47 374.27,-88.40 376.49,-89.36 378.71,-90.34 380.92,-91.34 383.13,-92.37 385.33,-93.41 387.53,-94.47 389.70,-95.54 391.87,-96.64 394.02,-97.73 396.14,-98.84 398.25,-99.97 400.34,-101.10 402.40,-102.24 404.43,-103.38 406.44,-104.53 408.41,-105.67 410.35,-106.82 412.26,-107.96 414.13,-109.10 415.96,-110.24 417.74,-111.38 419.49,-112.50 421.18,-113.61 422.83,-114.72 424.43,-115.82 425.98,-116.89 427.48,-117.96 428.91,-119.00 430.30,-120.03 431.61,-121.03 432.86,-122.02 434.06,-122.98 435.18,-123.91 436.24,-124.81 437.21,-125.69 438.12,-126.54 438.95,-127.35 439.71,-128.12 440.37,-128.85 440.96,-129.54 441.45,-130.17 441.85,-130.77 442.16,-131.28 442.23,-131.43"/>
    </edge>
    <edge id="entry" from="J13" to="J14" priority="-1" shape="-609.70,-74.08 -511.72,-73.68 331.01,-74.84">
        <lane id="entry_0" index="0" speed="33.30" length="940.38" shape="-609.67,-82.08 -511.71,-81.68 330.69,-82.84"/>
        <lane id="entry_1" index="1" speed="33.30" length="940.38" shape="-609.68,-78.88 -511.71,-78.48 330.69,-79.64"/>
        <lane id="entry_2" index="2" speed="33.30" length="940.38" shape="-609.69,-75.68 -511.72,-75.28 330.70,-76.44"/>
    </edge>
    <edge id="exit" from="J23" to="J24" name="exit" priority="-1">
        <lane id="exit_0" index="0" speed="33.30" length="154.14" shape="-539.57,-473.62 -693.71,-472.29"/>
        <lane id="exit_1" index="1" speed="33.30" length="154.14" shape="-539.60,-476.82 -693.74,-475.49"/>
        <lane id="exit_2" index="2" speed="33.30" length="154.14" shape="-539.63,-480.02 -693.77,-478.69"/>
    </edge>

    <junction id="J0" type="priority" x="324.80" y="-217.76" incLanes="E0_0 E0_1 E0_2" intLanes=":J0_0_0 :J0_0_1 :J0_0_2" shape="324.15,-208.16 325.43,-217.67 324.96,-217.73 324.80,-217.75 324.64,-217.76 324.44,-217.76 324.16,-217.76">
        <request index="0" response="000" foes="000" cont="0"/>
        <request index="1" response="000" foes="000" cont="0"/>
        <request index="2" response="000" foes="000" cont="0"/>
    </junction>
    <junction id="J13" type="dead_end" x="-609.70" y="-74.08" incLanes="" intLanes="" shape="-609.70,-74.08 -609.66,-83.68"/>
    <junction id="J14" type="priority" x="331.01" y="-74.84" incLanes="entry_0 entry_1 entry_2" intLanes=":J14_0_0 :J14_0_1 :J14_0_2" shape="331.32,-74.86 330.69,-84.44 330.70,-74.84">
        <request index="0" response="000" foes="000" cont="0"/>