<?xml version="1.0" encoding="UTF-8"?>

<!-- generated on 2024-10-08 20:12:04 by Eclipse SUMO netedit Version 1.20.0
<configuration xmlns:xsi="http://www.w3.org/2001/XMLSchema-instance" xsi:noNamespaceSchemaLocation="http://sumo.dlr.de/xsd/neteditConfiguration.xsd">

    <input>
        <sumo-net-file value="C:\Users\nieder\Documents\Uni\Masterarbeit\Projekt\VerkehrsflussoptimierungDurchCarToCarCommunication\src\main\sumo\dreispurige_autobahn\network.net.xml"/>
    </input>

    <output>
        <output-file value="C:\Users\nieder\Documents\Uni\Masterarbeit\Projekt\VerkehrsflussoptimierungDurchCarToCarCommunication\src\main\sumo\dreispurige_autobahn\network.net.xml"/>
        <output.street-names value="true"/>
    </output>

    <processing>
        <geometry.min-radius.fix.railways value="false"/>
        <geometry.max-grade.fix value="false"/>
        <offset.disable-normalization value="true"/>
        <lefthand value="0"/>
    </processing>

    <junctions>
        <no-turnarounds value="true"/>
        <junctions.corner-detail value="5"/>
        <junctions.limit-turn-speed value="5.50"/>
        <rectangular-lane-cut value="0"/>
    </junctions>

    <pedestrian>
        <walkingareas value="0"/>
    </pedestrian>

</configuration>
-->

<net version="1.20" junctionCornerDetail="5" limitTurnSpeed="5.50" xmlns:xsi="http://www.w3.org/2001/XMLSchema-instance" xsi:noNamespaceSchemaLocation="http://sumo.dlr.de/xsd/net_file.xsd">

    <location netOffset="0.00,0.00" convBoundary="-693.78,-481.62,452.74,-73.68" origBoundary="-10000000000.00,-10000000000.00,10000000000.00,10000000000.00" projParameter="!"/>

    <edge id=":J0_0" function="internal">
        <lane id=":J0_0_0" index="0" speed="36.00" length="0.29" shape="324.99,-209.76 324.66,-209.76"/>
        <lane id=":J0_0_1" index="1" speed="36.00" length="0.29" shape="324.96,-212.96 324.67,-212.96"/>
        <lane id=":J0_0_2" index="2" speed="36.00" length="0.29" shape="324.94,-216.16 324.67,-216.16"/>
    </edge>
    <edge id=":J14_0" function="internal">
        <lane id=":J14_0_0" index="0" speed="36.00" length="0.33" shape="330.76,-82.84 330.99,-82.84"/>
        <lane id=":J14_0_1" index="1" speed="36.00" length="0.33" shape="330.76,-79.64 331.09,-79.65"/>
        <lane id=":J14_0_2" index="2" speed="36.00" length="0.33" shape="330.77,-76.44 331.20,-76.45"/>
    </edge>
    <edge id=":J15_0" function="internal">
        <lane id=":J15_0_0" index="0" speed="36.00" length="0.43" shape="435.05,-143.15 435.05,-143.19 435.05,-143.22 435.05,-143.25 435.05,-143.29"/>
        <lane id=":J15_0_1" index="1" speed="36.00" length="0.43" shape="438.25,-143.00 438.25,-143.12 438.25,-143.21 438.25,-143.30 438.25,-143.43"/>
        <lane id=":J15_0_2" index="2" speed="36.00" length="0.43" shape="441.44,-142.85 441.45,-143.06 441.45,-143.20 441.45,-143.35 441.44,-143.56"/>
    </edge>
    <edge id=":J17_0" function="internal">
        <lane id=":J17_0_0" index="0" speed="36.00" length="0.30" shape="-513.23,-211.31 -513.55,-211.31"/>
        <lane id=":J17_0_1" index="1" speed="36.00" length="0.30" shape="-513.23,-214.51 -513.52,-214.51"/>
        <lane id=":J17_0_2" index="2" speed="36.00" length="0.30" shape="-513.22,-217.71 -513.50,-217.71"/>
    </edge>
    <edge id=":J18_0" function="internal">
        <lane id=":J18_0_0" index="0" speed="36.00" length="0.66" shape="-650.27,-269.19 -650.35,-269.51 -650.40,-269.73 -650.44,-269.95 -650.48,-270.27"/>
        <lane id=":J18_0_1" index="1" speed="36.00" length="0.66" shape="-647.18,-270.02 -647.23,-270.21 -647.26,-270.34 -647.28,-270.47 -647.30,-270.67"/>
        <lane id=":J18_0_2" index="2" speed="36.00" length="0.66" shape="-644.09,-270.85 -644.10,-270.91 -644.11,-270.95 -644.12,-271.00 -644.13,-271.06"/>
    </edge>
    <edge id=":J19_0" function="internal">
        <lane id=":J19_0_0" index="0" speed="36.00" length="0.30" shape="-525.96,-336.69 -525.64,-336.69"/>
        <lane id=":J19_0_1" index="1" speed="36.00" length="0.30" shape="-525.95,-333.49 -525.65,-333.49"/>
        <lane id=":J19_0_2" index="2" speed="36.00" length="0.30" shape="-525.94,-330.29 -525.66,-330.29"/>
    </edge>
    <edge id=":J20_0" function="internal">
        <lane id=":J20_0_0" index="0" speed="36.00" length="0.30" shape="328.33,-334.59 328.54,-334.59"/>
        <lane id=":J20_0_1" index="1" speed="36.00" length="0.30" shape="328.33,-331.39 328.62,-331.39"/>
        <lane id=":J20_0_2" index="2" speed="36.00" length="0.30" shape="328.32,-328.19 328.71,-328.20"/>
    </edge>
    <edge id=":J21_0" function="internal">
        <lane id=":J21_0_0" index="0" speed="36.00" length="0.30" shape="444.46,-398.43 444.45,-398.75"/>
        <lane id=":J21_0_1" index="1" speed="36.00" length="0.30" shape="447.66,-398.57 447.65,-398.87"/>
        <lane id=":J21_0_2" index="2" speed="36.00" length="0.30" shape="450.86,-398.71 450.85,-398.99"/>
    </edge>
    <edge id=":J22_0" function="internal">
        <lane id=":J22_0_0" index="0" speed="36.00" length="0.30" shape="340.62,-471.53 340.33,-471.53"/>
        <lane id=":J22_0_1" index="1" speed="36.00" length="0.30" shape="340.64,-474.73 340.34,-474.73"/>
        <lane id=":J22_0_2" index="2" speed="36.00" length="0.30" shape="340.65,-477.93 340.34,-477.93"/>
    </edge>
    <edge id=":J23_0" function="internal">
        <lane id=":J23_0_0" index="0" speed="36.00" length="0.29" shape="-539.32,-473.62 -539.57,-473.62"/>
        <lane id=":J23_0_1" index="1" speed="36.00" length="0.29" shape="-539.31,-476.82 -539.60,-476.82"/>
        <lane id=":J23_0_2" index="2" speed="36.00" length="0.29" shape="-539.30,-480.02 -539.63,-480.02"/>
    </edge>

    <edge id="E0" from="J15" to="J0" priority="-1" shape="443.06,-143.20 442.76,-150.29 440.88,-158.39 437.75,-167.01 434.06,-174.58 429.44,-181.72 424.24,-187.49 419.04,-192.57 413.22,-197.63 406.37,-202.01 399.49,-206.08 392.44,-209.45 384.51,-212.38 374.63,-215.10 363.36,-216.60 353.12,-217.41 343.94,-217.90 335.33,-217.85 324.80,-217.76">
        <lane id="E0_0" index="0" speed="36.00" length="148.93" shape="435.05,-143.29 434.80,-149.21 433.20,-156.11 430.37,-163.88 427.08,-170.64 423.07,-176.84 418.47,-181.95 413.62,-186.69 408.41,-191.21 402.18,-195.20 395.72,-199.01 389.32,-202.07 382.06,-204.76 373.03,-207.24 362.52,-208.64 352.59,-209.43 343.75,-209.90 335.39,-209.85 324.99,-209.76"/>
        <lane id="E0_1" index="1" speed="36.00" length="148.93" shape="438.25,-143.43 437.98,-149.64 436.27,-157.02 433.32,-165.13 429.87,-172.22 425.62,-178.79 420.78,-184.16 415.79,-189.04 410.34,-193.78 403.85,-197.92 397.23,-201.84 390.57,-205.02 383.04,-207.81 373.67,-210.39 362.85,-211.83 352.80,-212.62 343.83,-213.10 335.37,-213.05 324.96,-212.96"/>
        <lane id="E0_2" index="2" speed="36.00" length="148.93" shape="441.44,-143.56 441.17,-150.07 439.34,-157.93 436.27,-166.38 432.66,-173.79 428.17,-180.74 423.09,-186.38 417.96,-191.39 412.26,-196.35 405.53,-200.65 398.74,-204.67 391.82,-207.97 384.02,-210.86 374.31,-213.53 363.19,-215.01 353.01,-215.81 343.90,-216.30 335.34,-216.25 324.94,-216.16"/>
    </edge>
    <edge id="E1" from="J0" to="J17" priority="-1">
        <lane id="E1_0" index="0" speed="36.00" length="837.90" shape="324.66,-209.76 -513.23,-211.31"/>
        <lane id="E1_1" index="1" speed="36.00" length="837.90" shape="324.67,-212.96 -513.23,-214.51"/>
        <lane id="E1_2" index="2" speed="36.00" length="837.90" shape="324.67,-216.16 -513.22,-217.71"/>
    </edge>
    <edge id="E12" from="J17" to="J18" priority="-1" shape="-513.35,-219.31 -524.85,-219.41 -537.77,-220.03 -552.62,-221.01 -567.90,-222.19 -577.03,-223.57 -586.34,-224.85 -599.73,-228.38 -614.40,-235.01 -628.35,-244.05 -638.44,-255.95 -642.54,-271.26">
        <lane id="E12_0" index="0" speed="36.00" length="157.45" shape="-513.55,-211.31 -525.08,-211.41 -538.23,-212.04 -553.19,-213.03 -568.81,-214.24 -578.17,-215.65 -587.91,-216.99 -602.42,-220.81 -618.24,-227.97 -633.69,-237.98 -645.70,-252.15 -650.27,-269.19"/>
        <lane id="E12_1" index="1" speed="36.00" length="157.45" shape="-513.52,-214.51 -524.99,-214.61 -538.04,-215.24 -552.96,-216.22 -568.44,-217.42 -577.72,-218.82 -587.28,-220.13 -601.34,-223.84 -616.71,-230.79 -631.55,-240.41 -642.80,-253.67 -647.18,-270.02"/>
        <lane id="E12_2" index="2" speed="36.00" length="157.45" shape="-513.50,-217.71 -524.90,-217.81 -537.86,-218.43 -552.73,-219.41 -568.08,-220.60 -577.26,-221.99 -586.65,-223.28 -600.27,-226.87 -615.17,-233.60 -629.42,-242.84 -639.89,-255.19 -644.09,-270.85"/>
    </edge>
    <edge id="E13" from="J18" to="J19" priority="-1" shape="-642.54,-271.26 -643.01,-275.04 -642.43,-282.45 -637.98,-292.80 -631.82,-300.31 -621.80,-307.90 -610.83,-312.96 -601.09,-316.52 -588.96,-321.05 -576.19,-323.88 -565.23,-326.40 -551.77,-327.85 -541.43,-328.64 -525.80,-328.69">
        <lane id="E13_0" index="0" speed="36.00" length="152.07" shape="-650.48,-270.27 -651.05,-274.86 -650.30,-284.39 -644.88,-297.00 -637.41,-306.12 -625.94,-314.80 -613.88,-320.36 -603.87,-324.02 -591.24,-328.74 -577.95,-331.68 -566.56,-334.30 -552.50,-335.82 -541.75,-336.64 -525.96,-336.69"/>
        <lane id="E13_1" index="1" speed="36.00" length="152.07" shape="-647.30,-270.67 -647.83,-274.93 -647.15,-283.62 -642.12,-295.32 -635.17,-303.79 -624.28,-312.04 -612.66,-317.40 -602.76,-321.02 -590.33,-325.66 -577.25,-328.56 -566.03,-331.14 -552.21,-332.63 -541.62,-333.44 -525.95,-333.49"/>
        <lane id="E13_2" index="2" speed="36.00" length="152.07" shape="-644.13,-271.06 -644.62,-275.00 -644.00,-282.84 -639.36,-293.64 -632.94,-301.47 -622.63,-309.28 -611.44,-314.44 -601.65,-318.02 -589.42,-322.59 -576.54,-325.44 -565.50,-327.98 -551.92,-329.44 -541.49,-330.24 -525.94,-330.29"/>
    </edge>
    <edge id="E14" from="J19" to="J20" priority="-1">
        <lane id="E14_0" index="0" speed="36.00" length="853.98" shape="-525.64,-336.69 328.33,-334.59"/>
        <lane id="E14_1" index="1" speed="36.00" length="853.98" shape="-525.65,-333.49 328.33,-331.39"/>
        <lane id="E14_2" index="2" speed="36.00" length="853.98" shape="-525.66,-330.29 328.32,-328.19"/>
    </edge>
    <edge id="E15" from="J20" to="J21" priority="-1" shape="328.53,-326.59 342.17,-326.94 351.87,-327.52 358.16,-328.13 365.05,-328.75 372.54,-329.77 382.45,-331.90 392.08,-334.65 403.48,-338.70 414.94,-343.77 424.27,-348.18 431.23,-354.29 439.85,-361.62 445.43,-371.41 450.39,-380.52 452.74,-392.17 452.45,-398.91">
        <lane id="E15_0" index="0" speed="36.00" length="152.09" shape="328.54,-334.59 341.83,-334.93 351.24,-335.50 357.42,-336.10 364.15,-336.70 371.16,-337.66 380.51,-339.67 389.64,-342.27 400.52,-346.14 411.61,-351.05 419.84,-354.93 426.00,-360.34 433.60,-366.80 438.44,-375.30 442.79,-383.29 444.71,-392.80 444.46,-398.43"/>
        <lane id="E15_1" index="1" speed="36.00" length="152.09" shape="328.62,-331.39 341.97,-331.74 351.49,-332.31 357.71,-332.91 364.51,-333.52 371.71,-334.50 381.29,-336.56 390.62,-339.22 401.70,-343.16 412.94,-348.14 421.61,-352.23 428.09,-357.92 436.10,-364.73 441.24,-373.75 445.83,-382.18 447.92,-392.55 447.66,-398.57"/>
        <lane id="E15_2" index="2" speed="36.00" length="152.09" shape="328.71,-328.20 342.10,-328.54 351.74,-329.12 358.01,-329.72 364.87,-330.34 372.26,-331.35 382.06,-333.45 391.59,-336.17 402.89,-340.19 414.27,-345.23 423.38,-349.53 430.18,-355.50 438.60,-362.66 444.03,-372.19 448.87,-381.07 451.13,-392.30 450.86,-398.71"/>
    </edge>
    <edge id="E16" from="J21" to="J22" priority="-1" shape="452.45,-398.91 452.11,-408.05 449.83,-419.45 446.77,-428.83 442.04,-437.14 436.46,-443.45 429.33,-449.99 422.19,-455.92 413.36,-462.24 405.82,-466.37 396.47,-470.24 383.66,-474.11 371.25,-477.12 356.18,-479.47 340.50,-479.53">
        <lane id="E16_0" index="0" speed="36.00" length="146.59" shape="444.45,-398.75 444.14,-407.11 442.08,-417.42 439.42,-425.58 435.50,-432.46 430.74,-437.84 424.07,-443.96 417.30,-449.58 409.09,-455.45 402.36,-459.14 393.78,-462.70 381.56,-466.39 369.69,-469.27 355.54,-471.47 340.62,-471.53"/>
        <lane id="E16_1" index="1" speed="36.00" length="146.59" shape="447.65,-398.87 447.33,-407.49 445.18,-418.23 442.36,-426.88 438.11,-434.33 433.03,-440.08 426.17,-446.37 419.26,-452.12 410.80,-458.17 403.74,-462.03 394.85,-465.71 382.40,-469.48 370.31,-472.41 355.80,-474.67 340.64,-474.73"/>
        <lane id="E16_2" index="2" speed="36.00" length="146.59" shape="450.85,-398.99 450.52,-407.86 448.28,-419.04 445.30,-428.18 440.73,-436.20 435.32,-442.33 428.28,-448.78 421.21,-454.65 412.51,-460.88 405.13,-464.92 395.93,-468.73 383.24,-472.57 370.94,-475.55 356.05,-477.87 340.65,-477.93"/>
    </edge>
    <edge id="E17" from="J22" to="J23" priority="-1">
        <lane id="E17_0" index="0" speed="36.00" length="879.65" shape="340.33,-471.53 -539.32,-473.62"/>
        <lane id="E17_1" index="1" speed="36.00" length="879.65" shape="340.34,-474.73 -539.31,-476.82"/>
        <lane id="E17_2" index="2" speed="36.00" length="879.65" shape="340.34,-477.93 -539.30,-480.02"/>
    </edge>
    <edge id="E9" from="J14" to="J15" priority="-1" shape="331.01,-74.84 336.51,-75.02 344.43,-75.28 357.13,-75.61 368.11,-76.33 379.22,-77.79 388.63,-79.84 397.79,-82.82 405.37,-85.76 412.21,-89.28 419.52,-93.34 426.28,-99.06 433.18,-106.89 437.21,-115.30 441.11,-125.15 442.66,-134.73 443.06,-143.20">
        <lane id="E9_0" index="0" speed="36.00" length="141.34" shape="330.99,-82.84 336.25,-83.02 344.20,-83.28 356.76,-83.60 367.33,-84.30 377.84,-85.68 386.54,-87.57 395.10,-90.36 402.08,-93.07 408.44,-96.34 414.95,-99.95 420.67,-104.79 426.44,-111.35 429.87,-118.50 433.35,-127.29 434.69,-135.56 435.05,-143.15"/>
        <lane id="E9_1" index="1" speed="36.00" length="141.34" shape="331.09,-79.65 336.35,-79.82 344.29,-80.08 356.91,-80.41 367.64,-81.11 378.39,-82.52 387.37,-84.48 396.18,-87.34 403.40,-90.14 409.95,-93.51 416.78,-97.31 422.91,-102.50 429.14,-109.56 432.81,-117.22 436.45,-126.43 437.88,-135.23 438.25,-143.00"/>
        <lane id="E9_2" index="2" speed="36.00" length="141.34" shape="331.20,-76.45 336.46,-76.62 344.38,-76.88 357.06,-77.21 367.95,-77.92 378.94,-79.37 388.21,-81.39 397.25,-84.33 404.71,-87.22 411.46,-90.69 418.61,-94.66 425.16,-100.21 431.83,-107.78 435.74,-115.94 439.56,-125.58 441.07,-134.90 441.44,-142.85"/>
    </edge>
    <edge id="entry" from="J13" to="J14" priority="-1" shape="-609.70,-74.08 -511.72,-73.68 331.01,-74.84">
        <lane id="entry_0" index="0" speed="36.00" length="940.45" shape="-609.67,-82.08 -511.71,-81.68 330.76,-82.84"/>
        <lane id="entry_1" index="1" speed="36.00" length="940.45" shape="-609.68,-78.88 -511.71,-78.48 330.76,-79.64"/>
        <lane id="entry_2" index="2" speed="36.00" length="940.45" shape="-609.69,-75.68 -511.72,-75.28 330.77,-76.44"/>
    </edge>
    <edge id="exit" from="J23" to="J24" name="exit" priority="-1">
        <lane id="exit_0" index="0" speed="36.00" length="154.14" shape="-539.57,-473.62 -693.71,-472.29"/>
        <lane id="exit_1" index="1" speed="36.00" length="154.14" shape="-539.60,-476.82 -693.74,-475.49"/>
        <lane id="exit_2" index="2" speed="36.00" length="154.14" shape="-539.63,-480.02 -693.77,-478.69"/>
    </edge>

    <junction id="J0" type="priority" x="324.80" y="-217.76" incLanes="E0_0 E0_1 E0_2" intLanes=":J0_0_0 :J0_0_1 :J0_0_2" shape="325.00,-208.16 324.92,-217.76 324.68,-217.76 324.66,-208.16">
        <request index="0" response="000" foes="000" cont="0"/>
        <request index="1" response="000" foes="000" cont="0"/>
        <request index="2" response="000" foes="000" cont="0"/>
    </junction>
    <junction id="J13" type="dead_end" x="-609.70" y="-74.08" incLanes="" intLanes="" shape="-609.70,-74.08 -609.66,-83.68"/>
    <junction id="J14" type="priority" x="331.01" y="-74.84" incLanes="entry_0 entry_1 entry_2" intLanes=":J14_0_0 :J14_0_1 :J14_0_2" shape="331.25,-74.85 330.93,-84.44 330.76,-84.44 330.77,-74.84">
        <request index="0" response="000" foes="000" cont="0"/>
        <request index="1" response="000" foes="000" cont="0"/>
        <request index="2" response="000" foes="000" cont="0"/>
    </junction>
    <junction id="J15" type="priority" x="443.06" y="-143.20" incLanes="E9_0 E9_1 E9_2" intLanes=":J15_0_0 :J15_0_1 :J15_0_2" shape="443.04,-143.63 433.45,-143.22 443.04,-142.77 443.05,-143.09 443.06,-143.20 443.05,-143.31">
        <request index="0" response="000" foes="000" cont="0"/>
        <request index="1" response="000" foes="000" cont="0"/>
        <request index="2" response="000" foes="000" cont="0"/>
    </junction>
    <junction id="J17" type="priority" x="-513.35" y="-219.31" incLanes="E1_0 E1_1 E1_2" intLanes=":J17_0_0 :J17_0_1 :J17_0_2" shape="-513.24,-209.71 -513.22,-219.31 -513.48,-219.31 -513.57,-209.71">
        <request index="0" response="000" foes="000" cont="0"/>
        <request index="1" response="000" foes="000" cont="0"/>
        <request index="2" response="000" foes="000" cont="0"/>
    </junction>
    <junction id="J18" type="priority" x="-642.54" y="-271.26" incLanes="E12_0 E12_1 E12_2" intLanes=":J18_0_0 :J18_0_1 :J18_0_2" shape="-651.81,-268.78 -642.54,-271.26 -652.07,-270.08 -652.00,-269.59 -651.97,-269.42 -651.94,-269.25 -651.89,-269.05">
        <request index="0" response="000" foes="000" cont="0"/>
        <request index="1" response="000" foes="000" cont="0"/>
        <request index="2" response="000" foes="000" cont="0"/>
    </junction>
    <junction id="J19" type="priority" x="-525.80" y="-328.69" incLanes="E13_0 E13_1 E13_2" intLanes=":J19_0_0 :J19_0_1 :J19_0_2" shape="-525.66,-328.69 -525.64,-338.29 -525.97,-338.29 -525.94,-328.69">
        <request index="0" response="000" foes="000" cont="0"/>
        <request index="1" response="000" foes="000" cont="0"/>
        <request index="2" response="000" foes="000" cont="0"/>
    </junction>
    <junction id="J20" type="priority" x="328.53" y="-326.59" incLanes="E14_0 E14_1 E14_2" intLanes=":J20_0_0 :J20_0_1 :J20_0_2" shape="328.75,-326.60 328.50,-336.19 328.34,-336.19 328.31,-326.59">
        <request index="0" response="000" foes="000" cont="0"/>
        <request index="1" response="000" foes="000" cont="0"/>
        <request index="2" response="000" foes="000" cont="0"/>
    </junction>
    <junction id="J21" type="priority" x="452.45" y="-398.91" incLanes="E15_0 E15_1 E15_2" intLanes=":J21_0_0 :J21_0_1 :J21_0_2" shape="442.86,-398.36 452.46,-398.77 452.44,-399.05 442.85,-398.69">
        <request index="0" response="000" foes="000" cont="0"/>
        <request index="1" response="000" foes="000" cont="0"/>
        <request index="2" response="000" foes="000" cont="0"/>
    </junction>
    <junction id="J22" type="priority" x="340.50" y="-479.53" incLanes="E16_0 E16_1 E16_2" intLanes=":J22_0_0 :J22_0_1 :J22_0_2" shape="340.62,-469.93 340.65,-479.53 340.35,-479.53 340.32,-469.93">
        <request index="0" response="000" foes="000" cont="0"/>
        <request index="1" response="000" foes="000" cont="0"/>
        <request index="2" response="000" foes="000" cont="0"/>
    </junction>
    <junction id="J23" type="priority" x="-539.47" y="-481.62" incLanes="E17_0 E17_1 E17_2" intLanes=":J23_0_0 :J23_0_1 :J23_0_2" shape="-539.32,-472.02 -539.30,-481.62 -539.64,-481.62 -539.56,-472.02">
        <request index="0" response="000" foes="000" cont="0"/>
        <request index="1" response="000" foes="000" cont="0"/>
        <request index="2" response="000" foes="000" cont="0"/>
    </junction>
    <junction id="J24" type="dead_end" x="-693.78" y="-480.29" incLanes="exit_0 exit_1 exit_2" intLanes="" shape="-693.70,-470.69 -693.78,-480.29"/>

    <connection from="E0" to="E1" fromLane="0" toLane="0" via=":J0_0_0" dir="s" state="M"/>
    <connection from="E0" to="E1" fromLane="1" toLane="1" via=":J0_0_1" dir="s" state="M"/>
    <connection from="E0" to="E1" fromLane="2" toLane="2" via=":J0_0_2" dir="s" state="M"/>
    <connection from="E1" to="E12" fromLane="0" toLane="0" via=":J17_0_0" dir="s" state="M"/>
    <connection from="E1" to="E12" fromLane="1" toLane="1" via=":J17_0_1" dir="s" state="M"/>
    <connection from="E1" to="E12" fromLane="2" toLane="2" via=":J17_0_2" dir="s" state="M"/>
    <connection from="E12" to="E13" fromLane="0" toLane="0" via=":J18_0_0" dir="s" state="M"/>
    <connection from="E12" to="E13" fromLane="1" toLane="1" via=":J18_0_1" dir="s" state="M"/>
    <connection from="E12" to="E13" fromLane="2" toLane="2" via=":J18_0_2" dir="s" state="M"/>
    <connection from="E13" to="E14" fromLane="0" toLane="0" via=":J19_0_0" dir="s" state="M"/>
    <connection from="E13" to="E14" fromLane="1" toLane="1" via=":J19_0_1" dir="s" state="M"/>
    <connection from="E13" to="E14" fromLane="2" toLane="2" via=":J19_0_2" dir="s" state="M"/>
    <connection from="E14" to="E15" fromLane="0" toLane="0" via=":J20_0_0" dir="s" state="M"/>
    <connection from="E14" to="E15" fromLane="1" toLane="1" via=":J20_0_1" dir="s" state="M"/>
    <connection from="E14" to="E15" fromLane="2" toLane="2" via=":J20_0_2" dir="s" state="M"/>
    <connection from="E15" to="E16" fromLane="0" toLane="0" via=":J21_0_0" dir="s" state="M"/>
    <connection from="E15" to="E16" fromLane="1" toLane="1" via=":J21_0_1" dir="s" state="M"/>
    <connection from="E15" to="E16" fromLane="2" toLane="2" via=":J21_0_2" dir="s" state="M"/>
    <connection from="E16" to="E17" fromLane="0" toLane="0" via=":J22_0_0" dir="s" state="M"/>
    <connection from="E16" to="E17" fromLane="1" toLane="1" via=":J22_0_1" dir="s" state="M"/>
    <connection from="E16" to="E17" fromLane="2" toLane="2" via=":J22_0_2" dir="s" state="M"/>
    <connection from="E17" to="exit" fromLane="0" toLane="0" via=":J23_0_0" dir="s" state="M"/>
    <connection from="E17" to="exit" fromLane="1" toLane="1" via=":J23_0_1" dir="s" state="M"/>
    <connection from="E17" to="exit" fromLane="2" toLane="2" via=":J23_0_2" dir="s" state="M"/>
    <connection from="E9" to="E0" fromLane="0" toLane="0" via=":J15_0_0" dir="s" state="M"/>
    <connection from="E9" to="E0" fromLane="1" toLane="1" via=":J15_0_1" dir="s" state="M"/>
    <connection from="E9" to="E0" fromLane="2" toLane="2" via=":J15_0_2" dir="s" state="M"/>
    <connection from="entry" to="E9" fromLane="0" toLane="0" via=":J14_0_0" dir="s" state="M"/>
    <connection from="entry" to="E9" fromLane="1" toLane="1" via=":J14_0_1" dir="s" state="M"/>
    <connection from="entry" to="E9" fromLane="2" toLane="2" via=":J14_0_2" dir="s" state="M"/>

    <connection from=":J0_0" to="E1" fromLane="0" toLane="0" dir="s" state="M"/>
    <connection from=":J0_0" to="E1" fromLane="1" toLane="1" dir="s" state="M"/>
    <connection from=":J0_0" to="E1" fromLane="2" toLane="2" dir="s" state="M"/>
    <connection from=":J14_0" to="E9" fromLane="0" toLane="0" dir="s" state="M"/>
    <connection from=":J14_0" to="E9" fromLane="1" toLane="1" dir="s" state="M"/>
    <connection from=":J14_0" to="E9" fromLane="2" toLane="2" dir="s" state="M"/>
    <connection from=":J15_0" to="E0" fromLane="0" toLane="0" dir="s" state="M"/>
    <connection from=":J15_0" to="E0" fromLane="1" toLane="1" dir="s" state="M"/>
    <connection from=":J15_0" to="E0" fromLane="2" toLane="2" dir="s" state="M"/>
    <connection from=":J17_0" to="E12" fromLane="0" toLane="0" dir="s" state="M"/>
    <connection from=":J17_0" to="E12" fromLane="1" toLane="1" dir="s" state="M"/>
    <connection from=":J17_0" to="E12" fromLane="2" toLane="2" dir="s" state="M"/>
    <connection from=":J18_0" to="E13" fromLane="0" toLane="0" dir="s" state="M"/>
    <connection from=":J18_0" to="E13" fromLane="1" toLane="1" dir="s" state="M"/>
    <connection from=":J18_0" to="E13" fromLane="2" toLane="2" dir="s" state="M"/>
    <connection from=":J19_0" to="E14" fromLane="0" toLane="0" dir="s" state="M"/>
    <connection from=":J19_0" to="E14" fromLane="1" toLane="1" dir="s" state="M"/>
    <connection from=":J19_0" to="E14" fromLane="2" toLane="2" dir="s" state="M"/>
    <connection from=":J20_0" to="E15" fromLane="0" toLane="0" dir="s" state="M"/>
    <connection from=":J20_0" to="E15" fromLane="1" toLane="1" dir="s" state="M"/>
    <connection from=":J20_0" to="E15" fromLane="2" toLane="2" dir="s" state="M"/>
    <connection from=":J21_0" to="E16" fromLane="0" toLane="0" dir="s" state="M"/>
    <connection from=":J21_0" to="E16" fromLane="1" toLane="1" dir="s" state="M"/>
    <connection from=":J21_0" to="E16" fromLane="2" toLane="2" dir="s" state="M"/>
    <connection from=":J22_0" to="E17" fromLane="0" toLane="0" dir="s" state="M"/>
    <connection from=":J22_0" to="E17" fromLane="1" toLane="1" dir="s" state="M"/>
    <connection from=":J22_0" to="E17" fromLane="2" toLane="2" dir="s" state="M"/>
    <connection from=":J23_0" to="exit" fromLane="0" toLane="0" dir="s" state="M"/>
    <connection from=":J23_0" to="exit" fromLane="1" toLane="1" dir="s" state="M"/>
    <connection from=":J23_0" to="exit" fromLane="2" toLane="2" dir="s" state="M"/>

</net>
