<?xml version="1.0" encoding="UTF-8"?>

<!-- generated on 2024-10-08 19:56:07 by Eclipse SUMO netedit Version 1.20.0
<configuration xmlns:xsi="http://www.w3.org/2001/XMLSchema-instance" xsi:noNamespaceSchemaLocation="http://sumo.dlr.de/xsd/neteditConfiguration.xsd">

    <input>
        <sumo-net-file value="C:\Users\nieder\Documents\Uni\Masterarbeit\Projekt\VerkehrsflussoptimierungDurchCarToCarCommunication\src\main\sumo\ende_einer_spur\network.net.xml"/>
    </input>

    <output>
        <output-file value="C:\Users\nieder\Documents\Uni\Masterarbeit\Projekt\VerkehrsflussoptimierungDurchCarToCarCommunication\src\main\sumo\ende_einer_spur\network.net.xml"/>
        <output.street-names value="true"/>
    </output>

    <processing>
        <geometry.min-radius.fix.railways value="false"/>
        <geometry.max-grade.fix value="false"/>
        <offset.disable-normalization value="true"/>
        <lefthand value="0"/>
    </processing>

    <junctions>
        <no-turnarounds value="true"/>
        <junctions.corner-detail value="5"/>
        <junctions.limit-turn-speed value="5.50"/>
        <rectangular-lane-cut value="0"/>
    </junctions>

    <pedestrian>
        <walkingareas value="0"/>
    </pedestrian>

</configuration>
-->

<net version="1.20" junctionCornerDetail="5" limitTurnSpeed="5.50" xmlns:xsi="http://www.w3.org/2001/XMLSchema-instance" xsi:noNamespaceSchemaLocation="http://sumo.dlr.de/xsd/net_file.xsd">

    <location netOffset="0.00,0.00" convBoundary="-689.79,-971.93,451.63,-21.96" origBoundary="-10000000000.00,-10000000000.00,10000000000.00,10000000000.00" projParameter="!"/>

    <edge id=":J0_0" function="internal">
        <lane id=":J0_0_0" index="0" speed="36.00" length="0.44" shape="324.55,-209.75 324.51,-209.76 324.48,-209.76 324.45,-209.76 324.40,-209.76"/>
        <lane id=":J0_0_1" index="1" speed="36.00" length="0.44" shape="324.83,-212.94 324.70,-212.95 324.61,-212.96 324.52,-212.96 324.38,-212.96"/>
        <lane id=":J0_0_2" index="2" speed="36.00" length="0.44" shape="325.10,-216.13 324.89,-216.15 324.74,-216.16 324.58,-216.16 324.36,-216.16"/>
    </edge>
    <edge id=":J1_0" function="internal">
        <lane id=":J1_0_0" index="0" speed="36.00" length="8.00" shape="48.51,-208.14 40.50,-208.14"/>
        <lane id=":J1_0_1" index="1" speed="36.00" length="8.00" shape="48.49,-211.34 40.50,-211.34"/>
    </edge>
    <edge id=":J14_0" function="internal">
        <lane id=":J14_0_0" index="0" speed="36.00" length="0.37" shape="326.63,-30.23 326.88,-30.23"/>
        <lane id=":J14_0_1" index="1" speed="36.00" length="0.37" shape="326.63,-27.03 327.00,-27.04"/>
        <lane id=":J14_0_2" index="2" speed="36.00" length="0.37" shape="326.63,-23.83 327.11,-23.84"/>
    </edge>
    <edge id=":J15_0" function="internal">
        <lane id=":J15_0_0" index="0" speed="36.00" length="0.42" shape="443.62,-112.05 443.62,-112.09 443.62,-112.12 443.62,-112.15 443.62,-112.19"/>
        <lane id=":J15_0_1" index="1" speed="36.00" length="0.42" shape="446.82,-111.96 446.82,-112.09 446.82,-112.18 446.82,-112.26 446.81,-112.39"/>
        <lane id=":J15_0_2" index="2" speed="36.00" length="0.42" shape="450.02,-111.88 450.02,-112.09 450.02,-112.23 450.02,-112.38 450.01,-112.59"/>
    </edge>
    <edge id=":J17_0" function="internal">
        <lane id=":J17_0_0" index="0" speed="36.00" length="8.26" shape="-291.08,-207.78 -299.10,-207.80"/>
        <lane id=":J17_0_1" index="1" speed="36.00" length="8.26" shape="-291.08,-210.98 -299.07,-211.00"/>
        <lane id=":J17_0_2" index="2" speed="36.00" length="8.26" shape="-291.08,-210.98 -293.53,-211.48 -295.06,-212.58 -296.59,-213.68 -299.04,-214.20"/>
    </edge>
    <edge id=":J18_0" function="internal">
        <lane id=":J18_0_0" index="0" speed="36.00" length="0.29" shape="-499.09,-209.50 -499.43,-209.50"/>
        <lane id=":J18_0_1" index="1" speed="36.00" length="0.29" shape="-499.07,-212.70 -499.36,-212.70"/>
        <lane id=":J18_0_2" index="2" speed="36.00" length="0.29" shape="-499.04,-215.90 -499.29,-215.90"/>
    </edge>
    <edge id=":J2_0" function="internal">
        <lane id=":J2_0_0" index="0" speed="36.00" length="0.31" shape="-561.92,-215.43 -562.25,-215.52"/>
        <lane id=":J2_0_1" index="1" speed="36.00" length="0.31" shape="-561.08,-218.51 -561.38,-218.60"/>
        <lane id=":J2_0_2" index="2" speed="36.00" length="0.31" shape="-560.24,-221.60 -560.50,-221.67"/>
    </edge>
    <edge id=":J23_0" function="internal">
        <lane id=":J23_0_0" index="0" speed="36.00" length="0.30" shape="-697.79,-362.52 -697.79,-362.83"/>
        <lane id=":J23_0_1" index="1" speed="36.00" length="0.30" shape="-694.59,-362.52 -694.59,-362.82"/>
        <lane id=":J23_0_2" index="2" speed="36.00" length="0.30" shape="-691.39,-362.52 -691.39,-362.82"/>
    </edge>
    <edge id=":J3_0" function="internal">
        <lane id=":J3_0_0" index="0" speed="36.00" length="0.31" shape="-605.68,-229.52 -605.97,-229.65"/>
        <lane id=":J3_0_1" index="1" speed="36.00" length="0.31" shape="-604.34,-232.43 -604.62,-232.56"/>
        <lane id=":J3_0_2" index="2" speed="36.00" length="0.31" shape="-603.00,-235.33 -603.27,-235.46"/>
    </edge>
    <edge id=":J4_0" function="internal">
        <lane id=":J4_0_0" index="0" speed="36.00" length="0.32" shape="-639.10,-246.61 -639.38,-246.82"/>
        <lane id=":J4_0_1" index="1" speed="36.00" length="0.32" shape="-637.16,-249.15 -637.41,-249.34"/>
        <lane id=":J4_0_2" index="2" speed="36.00" length="0.32" shape="-635.21,-251.69 -635.44,-251.87"/>
    </edge>
    <edge id=":J5_0" function="internal">
        <lane id=":J5_0_0" index="0" speed="36.00" length="0.11" shape="-670.33,-274.86 -670.43,-275.01"/>
        <lane id=":J5_0_1" index="1" speed="36.00" length="0.11" shape="-667.68,-276.66 -667.75,-276.76"/>
        <lane id=":J5_0_2" index="2" speed="36.00" length="0.11" shape="-665.04,-278.47 -665.06,-278.50"/>
    </edge>
    <edge id=":J6_0" function="internal">
        <lane id=":J6_0_0" index="0" speed="36.00" length="0.29" shape="-685.21,-301.95 -685.34,-302.27"/>
        <lane id=":J6_0_1" index="1" speed="36.00" length="0.29" shape="-682.26,-303.20 -682.38,-303.47"/>
        <lane id=":J6_0_2" index="2" speed="36.00" length="0.29" shape="-679.32,-304.45 -679.41,-304.68"/>
    </edge>
    <edge id=":J7_0" function="internal">
        <lane id=":J7_0_0" index="0" speed="36.00" length="0.39" shape="-696.21,-332.84 -696.33,-333.34"/>
        <lane id=":J7_0_1" index="1" speed="36.00" length="0.39" shape="-693.12,-333.68 -693.22,-334.06"/>
        <lane id=":J7_0_2" index="2" speed="36.00" length="0.39" shape="-690.04,-334.53 -690.10,-334.79"/>
    </edge>

    <edge id="E0" from="J15" to="J0" priority="-1" shape="451.63,-112.26 451.36,-116.64 450.96,-121.12 450.40,-127.90 448.26,-138.05 444.32,-149.96 440.04,-159.22 432.34,-168.77 425.99,-177.12 412.35,-187.98 398.92,-197.51 383.01,-205.29 364.05,-211.78 342.98,-216.18 324.80,-217.76">
        <lane id="E0_0" index="0" speed="36.00" length="175.28" shape="443.62,-112.19 443.38,-116.04 442.99,-120.44 442.47,-126.74 440.52,-135.96 436.87,-147.02 433.19,-154.97 426.04,-163.84 420.23,-171.48 407.54,-181.58 394.82,-190.61 379.95,-197.88 361.93,-204.05 341.81,-208.25 324.55,-209.75"/>
        <lane id="E0_1" index="1" speed="36.00" length="175.28" shape="446.81,-112.39 446.57,-116.28 446.18,-120.71 445.64,-127.20 443.62,-136.80 439.85,-148.19 435.93,-156.67 428.56,-165.81 422.53,-173.74 409.46,-184.14 396.46,-193.37 381.17,-200.85 362.78,-207.14 342.28,-211.42 324.83,-212.94"/>
        <lane id="E0_2" index="2" speed="36.00" length="175.28" shape="450.01,-112.59 449.76,-116.52 449.37,-120.98 448.81,-127.67 446.71,-137.63 442.83,-149.37 438.67,-158.37 431.08,-167.78 424.84,-175.99 411.39,-186.70 398.10,-196.13 382.40,-203.81 363.63,-210.23 342.75,-214.59 325.10,-216.13"/>
    </edge>
    <edge id="E1" from="J0" to="J1" priority="-1">
        <lane id="E1_0" index="0" speed="36.00" length="275.90" shape="324.40,-209.76 48.51,-208.14"/>
        <lane id="E1_1" index="1" speed="36.00" length="275.90" shape="324.38,-212.96 48.49,-211.34"/>
        <lane id="E1_2" index="2" speed="36.00" length="275.90" shape="324.36,-216.16 48.47,-214.54"/>
    </edge>
    <edge id="E1.444" from="J1" to="J17" priority="-1" shape="44.07,-212.94 -295.47,-212.58">
        <lane id="E1.444_0" index="0" speed="36.00" length="331.58" shape="40.50,-208.14 -291.08,-207.78"/>
        <lane id="E1.444_1" index="1" speed="36.00" length="331.58" shape="40.50,-211.34 -291.08,-210.98"/>
    </edge>
    <edge id="E12" from="J17" to="J18" priority="-1">
        <lane id="E12_0" index="0" speed="36.00" length="200.00" shape="-299.10,-207.80 -499.09,-209.50"/>
        <lane id="E12_1" index="1" speed="36.00" length="200.00" shape="-299.07,-211.00 -499.07,-212.70"/>
        <lane id="E12_2" index="2" speed="36.00" length="200.00" shape="-299.04,-214.20 -499.04,-215.90"/>
    </edge>
    <edge id="E14" from="J23" to="J24" name="exit" priority="-1">
        <lane id="E14_0" index="0" speed="36.00" length="609.12" shape="-697.79,-362.83 -696.73,-971.94"/>
        <lane id="E14_1" index="1" speed="36.00" length="609.12" shape="-694.59,-362.82 -693.53,-971.94"/>
        <lane id="E14_2" index="2" speed="36.00" length="609.12" shape="-691.39,-362.82 -690.33,-971.93"/>
    </edge>
    <edge id="E2" from="J18" to="J2" priority="-1" shape="-499.14,-217.50 -500.06,-217.52 -501.24,-217.56 -502.65,-217.62 -504.28,-217.70 -506.11,-217.80 -508.11,-217.92 -510.28,-218.05 -512.58,-218.20 -515.01,-218.37 -517.54,-218.54 -520.15,-218.74 -522.83,-218.94 -525.55,-219.15 -528.30,-219.38 -531.06,-219.61 -533.81,-219.85 -536.53,-220.09 -539.20,-220.34 -541.80,-220.60 -544.32,-220.86 -546.73,-221.12 -549.02,-221.39 -551.16,-221.65 -553.14,-221.91 -554.94,-222.17 -556.54,-222.43 -557.92,-222.69 -559.07,-222.94 -559.95,-223.18">
        <lane id="E2_0" index="0" speed="36.00" length="62.05" shape="-499.43,-209.50 -500.29,-209.52 -501.55,-209.57 -503.02,-209.63 -504.70,-209.71 -506.57,-209.81 -508.59,-209.93 -510.78,-210.07 -513.12,-210.22 -515.56,-210.39 -518.11,-210.56 -520.75,-210.76 -523.44,-210.96 -526.19,-211.18 -528.97,-211.41 -531.74,-211.64 -534.51,-211.88 -537.25,-212.12 -539.97,-212.38 -542.61,-212.64 -545.16,-212.90 -547.63,-213.17 -549.97,-213.45 -552.16,-213.71 -554.23,-213.98 -556.15,-214.26 -557.92,-214.55 -559.50,-214.85 -560.95,-215.16 -561.92,-215.43"/>
        <lane id="E2_1" index="1" speed="36.00" length="62.05" shape="-499.36,-212.70 -500.20,-212.72 -501.43,-212.76 -502.87,-212.83 -504.53,-212.91 -506.39,-213.01 -508.40,-213.13 -510.58,-213.26 -512.90,-213.41 -515.34,-213.58 -517.88,-213.75 -520.51,-213.95 -523.19,-214.15 -525.93,-214.37 -528.70,-214.60 -531.47,-214.83 -534.23,-215.07 -536.96,-215.31 -539.66,-215.56 -542.29,-215.82 -544.82,-216.09 -547.27,-216.35 -549.59,-216.62 -551.76,-216.89 -553.79,-217.15 -555.67,-217.43 -557.37,-217.70 -558.87,-217.98 -560.20,-218.27 -561.08,-218.51"/>
        <lane id="E2_2" index="2" speed="36.00" length="62.05" shape="-499.29,-215.90 -500.11,-215.92 -501.30,-215.96 -502.72,-216.02 -504.36,-216.10 -506.20,-216.20 -508.21,-216.32 -510.38,-216.45 -512.69,-216.60 -515.12,-216.77 -517.65,-216.94 -520.27,-217.14 -522.95,-217.34 -525.68,-217.56 -528.43,-217.79 -531.20,-218.02 -533.95,-218.26 -536.67,-218.50 -539.35,-218.75 -541.96,-219.01 -544.49,-219.27 -546.91,-219.53 -549.21,-219.80 -551.36,-220.06 -553.36,-220.32 -555.18,-220.59 -556.82,-220.85 -558.24,-221.12 -559.45,-221.38 -560.24,-221.60"/>
    </edge>
    <edge id="E3" from="J2" to="J3" priority="-1" shape="-559.95,-223.18 -560.90,-223.45 -562.17,-223.82 -563.74,-224.28 -565.57,-224.82 -567.62,-225.43 -569.87,-226.10 -572.26,-226.83 -574.78,-227.59 -577.38,-228.39 -580.03,-229.21 -582.70,-230.04 -585.34,-230.88 -587.93,-231.70 -590.43,-232.51 -592.81,-233.30 -595.02,-234.04 -597.04,-234.74 -598.83,-235.38 -600.36,-235.95 -601.58,-236.44 -602.47,-236.85">
        <lane id="E3_0" index="0" speed="36.00" length="45.15" shape="-562.25,-215.52 -563.12,-215.76 -564.41,-216.14 -566.00,-216.61 -567.84,-217.15 -569.90,-217.76 -572.18,-218.44 -574.58,-219.17 -577.11,-219.94 -579.74,-220.75 -582.40,-221.57 -585.10,-222.41 -587.76,-223.25 -590.37,-224.08 -592.92,-224.91 -595.34,-225.71 -597.60,-226.47 -599.69,-227.19 -601.57,-227.86 -603.24,-228.49 -604.72,-229.08 -605.68,-229.52"/>
        <lane id="E3_1" index="1" speed="36.00" length="45.15" shape="-561.38,-218.60 -562.23,-218.84 -563.52,-219.21 -565.09,-219.68 -566.93,-220.22 -568.99,-220.83 -571.26,-221.50 -573.65,-222.24 -576.18,-223.00 -578.80,-223.80 -581.45,-224.63 -584.14,-225.46 -586.79,-226.30 -589.39,-227.13 -591.93,-227.95 -594.33,-228.75 -596.57,-229.50 -598.63,-230.21 -600.47,-230.87 -602.09,-231.47 -603.46,-232.02 -604.34,-232.43"/>
        <lane id="E3_2" index="2" speed="36.00" length="45.15" shape="-560.50,-221.67 -561.34,-221.91 -562.62,-222.28 -564.19,-222.75 -566.02,-223.29 -568.08,-223.90 -570.33,-224.57 -572.72,-225.30 -575.25,-226.06 -577.85,-226.86 -580.50,-227.68 -583.18,-228.51 -585.82,-229.35 -588.42,-230.18 -590.93,-230.99 -593.32,-231.78 -595.54,-232.53 -597.57,-233.23 -599.38,-233.88 -600.94,-234.46 -602.21,-234.97 -603.00,-235.33"/>
    </edge>
    <edge id="E4" from="J3" to="J4" priority="-1" shape="-602.47,-236.85 -603.46,-237.31 -604.87,-237.96 -606.64,-238.78 -608.70,-239.75 -611.00,-240.83 -613.47,-242.01 -616.05,-243.25 -618.69,-244.53 -621.32,-245.82 -623.88,-247.10 -626.31,-248.34 -628.55,-249.52 -630.53,-250.60 -632.20,-251.57 -633.50,-252.39 -634.36,-253.05">
        <lane id="E4_0" index="0" speed="36.00" length="36.56" shape="-605.97,-229.65 -606.82,-230.05 -608.23,-230.70 -610.03,-231.53 -612.10,-232.51 -614.43,-233.60 -616.93,-234.80 -619.53,-236.05 -622.20,-237.34 -624.87,-238.65 -627.49,-239.96 -629.99,-241.24 -632.33,-242.47 -634.45,-243.62 -636.33,-244.72 -638.02,-245.79 -639.10,-246.61"/>
        <lane id="E4_1" index="1" speed="36.00" length="36.56" shape="-604.62,-232.56 -605.47,-232.95 -606.88,-233.60 -608.67,-234.43 -610.74,-235.41 -613.06,-236.49 -615.54,-237.68 -618.14,-238.93 -620.79,-240.22 -623.45,-241.52 -626.04,-242.82 -628.52,-244.08 -630.82,-245.29 -632.88,-246.41 -634.68,-247.46 -636.21,-248.43 -637.16,-249.15"/>
        <lane id="E4_2" index="2" speed="36.00" length="36.56" shape="-603.27,-235.46 -604.13,-235.86 -605.54,-236.51 -607.32,-237.33 -609.38,-238.30 -611.69,-239.38 -614.16,-240.57 -616.75,-241.81 -619.39,-243.09 -622.03,-244.39 -624.60,-245.67 -627.05,-246.92 -629.31,-248.11 -631.31,-249.20 -633.03,-250.20 -634.40,-251.07 -635.21,-251.69"/>
    </edge>
    <edge id="E5" from="J4" to="J5" priority="-1" shape="-634.36,-253.05 -635.18,-253.69 -636.32,-254.60 -637.73,-255.74 -639.37,-257.08 -641.20,-258.59 -643.19,-260.24 -645.28,-262.00 -647.43,-263.83 -649.62,-265.71 -651.79,-267.60 -653.90,-269.47 -655.92,-271.29 -657.81,-273.03 -659.51,-274.65 -660.99,-276.13 -662.22,-277.43 -663.14,-278.52 -663.72,-279.37">
        <lane id="E5_0" index="0" speed="36.00" length="40.86" shape="-639.38,-246.82 -640.14,-247.42 -641.33,-248.36 -642.78,-249.53 -644.45,-250.90 -646.30,-252.43 -648.32,-254.10 -650.45,-255.89 -652.63,-257.75 -654.85,-259.66 -657.07,-261.59 -659.23,-263.50 -661.31,-265.37 -663.28,-267.19 -665.09,-268.92 -666.72,-270.55 -668.17,-272.08 -669.52,-273.67 -670.33,-274.86"/>
        <lane id="E5_1" index="1" speed="36.00" length="40.86" shape="-637.41,-249.34 -638.16,-249.93 -639.33,-250.86 -640.76,-252.02 -642.42,-253.37 -644.26,-254.89 -646.27,-256.56 -648.38,-258.34 -650.55,-260.18 -652.76,-262.08 -654.96,-263.99 -657.10,-265.89 -659.15,-267.74 -661.09,-269.53 -662.86,-271.21 -664.43,-272.78 -665.79,-274.22 -666.97,-275.61 -667.68,-276.66"/>
        <lane id="E5_2" index="2" speed="36.00" length="40.86" shape="-635.44,-251.87 -636.17,-252.44 -637.32,-253.35 -638.74,-254.50 -640.39,-255.84 -642.22,-257.36 -644.22,-259.01 -646.31,-260.78 -648.47,-262.61 -650.67,-264.50 -652.85,-266.40 -654.97,-268.28 -657.00,-270.11 -658.90,-271.86 -660.63,-273.50 -662.14,-275.01 -663.41,-276.36 -664.42,-277.55 -665.04,-278.47"/>
    </edge>
    <edge id="E6" from="J5" to="J6" priority="-1" shape="-663.72,-279.37 -664.35,-280.34 -665.23,-281.81 -666.33,-283.68 -667.59,-285.86 -668.97,-288.27 -670.40,-290.82 -671.84,-293.42 -673.24,-295.98 -674.55,-298.42 -675.72,-300.65 -676.71,-302.57 -677.44,-304.12 -677.89,-305.18">
        <lane id="E6_0" index="0" speed="36.00" length="30.19" shape="-670.43,-275.01 -671.15,-276.13 -672.11,-277.73 -673.24,-279.65 -674.52,-281.87 -675.93,-284.33 -677.39,-286.93 -678.85,-289.56 -680.27,-292.17 -681.62,-294.67 -682.82,-296.96 -683.88,-299.02 -684.73,-300.82 -685.21,-301.95"/>
        <lane id="E6_1" index="1" speed="36.00" length="30.19" shape="-667.75,-276.76 -668.43,-277.81 -669.36,-279.36 -670.48,-281.26 -671.75,-283.47 -673.15,-285.90 -674.59,-288.48 -676.05,-291.11 -677.46,-293.69 -678.79,-296.17 -679.98,-298.43 -681.01,-300.44 -681.81,-302.14 -682.26,-303.20"/>
        <lane id="E6_2" index="2" speed="36.00" length="30.19" shape="-665.06,-278.50 -665.71,-279.50 -666.61,-280.99 -667.71,-282.87 -668.98,-285.06 -670.36,-287.48 -671.80,-290.04 -673.24,-292.65 -674.65,-295.22 -675.96,-297.67 -677.14,-299.91 -678.14,-301.86 -678.90,-303.46 -679.32,-304.45"/>
    </edge>
    <edge id="E7" from="J6" to="J7" priority="-1" shape="-677.89,-305.18 -678.32,-306.24 -678.92,-307.78 -679.66,-309.74 -680.52,-312.02 -681.46,-314.55 -682.44,-317.25 -683.45,-320.03 -684.45,-322.82 -685.41,-325.53 -686.29,-328.08 -687.08,-330.38 -687.73,-332.37 -688.22,-333.95 -688.52,-335.05">
        <lane id="E7_0" index="0" speed="36.00" length="32.07" shape="-685.34,-302.27 -685.76,-303.29 -686.39,-304.92 -687.14,-306.92 -688.01,-309.22 -688.97,-311.79 -689.96,-314.52 -690.98,-317.31 -691.99,-320.13 -692.96,-322.89 -693.85,-325.48 -694.66,-327.83 -695.35,-329.94 -695.89,-331.69 -696.21,-332.84"/>
        <lane id="E7_1" index="1" speed="36.00" length="32.07" shape="-682.38,-303.47 -682.78,-304.47 -683.40,-306.06 -684.15,-308.05 -685.02,-310.34 -685.97,-312.90 -686.95,-315.61 -687.97,-318.40 -688.97,-321.21 -689.94,-323.95 -690.83,-326.52 -691.63,-328.85 -692.30,-330.91 -692.82,-332.59 -693.12,-333.68"/>
        <lane id="E7_2" index="2" speed="36.00" length="32.07" shape="-679.41,-304.68 -679.81,-305.65 -680.41,-307.21 -681.16,-309.18 -682.02,-311.46 -682.96,-314.00 -683.94,-316.70 -684.96,-319.49 -685.96,-322.28 -686.92,-325.00 -687.80,-327.56 -688.60,-329.87 -689.25,-331.88 -689.75,-333.50 -690.04,-334.53"/>
    </edge>
    <edge id="E9" from="J14" to="J15" priority="-1" shape="326.90,-22.23 351.51,-23.12 373.77,-29.76 392.49,-38.04 405.22,-45.15 417.58,-53.75 427.89,-62.67 436.56,-72.10 441.94,-79.68 446.14,-87.79 449.48,-96.23 451.40,-103.69 451.63,-112.26">
        <lane id="E9_0" index="0" speed="36.00" length="160.24" shape="326.88,-30.23 350.20,-31.08 371.00,-37.28 388.91,-45.21 400.97,-51.94 412.66,-60.08 422.31,-68.42 430.33,-77.14 435.09,-83.85 438.85,-91.11 441.86,-98.71 443.43,-104.81 443.62,-112.05"/>
        <lane id="E9_1" index="1" speed="36.00" length="160.24" shape="327.00,-27.04 350.72,-27.89 372.11,-34.27 390.34,-42.34 402.67,-49.23 414.63,-57.55 424.54,-66.12 432.82,-75.13 437.83,-82.18 441.77,-89.78 444.91,-97.72 446.62,-104.36 446.82,-111.96"/>
        <lane id="E9_2" index="2" speed="36.00" length="160.24" shape="327.11,-23.84 351.25,-24.71 373.22,-31.26 391.77,-39.47 404.37,-46.51 416.60,-55.02 426.77,-63.82 435.31,-73.11 440.57,-80.51 444.68,-88.45 447.96,-96.73 449.81,-103.91 450.02,-111.88"/>
    </edge>
    <edge id="entry" from="J13" to="J14" priority="-1" shape="-606.21,-21.96 -499.00,-21.97 326.90,-22.23">
        <lane id="entry_0" index="0" speed="36.00" length="932.84" shape="-606.21,-29.96 -499.00,-29.97 326.63,-30.23"/>
        <lane id="entry_1" index="1" speed="36.00" length="932.84" shape="-606.21,-26.76 -499.00,-26.77 326.63,-27.03"/>
        <lane id="entry_2" index="2" speed="36.00" length="932.84" shape="-606.21,-23.56 -499.00,-23.57 326.63,-23.83"/>
    </edge>
    <edge id="exit" from="J7" to="J23" priority="-1" shape="-688.52,-335.05 -688.79,-336.21 -689.02,-337.98 -689.21,-340.25 -689.37,-342.89 -689.49,-345.77 -689.59,-348.78 -689.67,-351.80 -689.72,-354.70 -689.76,-357.35 -689.78,-359.65 -689.79,-361.46 -689.79,-362.67">
        <lane id="exit_0" index="0" speed="36.00" length="28.53" shape="-696.33,-333.34 -696.67,-334.78 -696.98,-337.13 -697.19,-339.68 -697.36,-342.48 -697.48,-345.47 -697.59,-348.54 -697.67,-351.62 -697.72,-354.57 -697.76,-357.25 -697.78,-359.59 -697.79,-361.43 -697.79,-362.52"/>
        <lane id="exit_1" index="1" speed="36.00" length="28.53" shape="-693.22,-334.06 -693.52,-335.35 -693.79,-337.47 -694.00,-339.91 -694.16,-342.65 -694.29,-345.59 -694.39,-348.64 -694.47,-351.69 -694.52,-354.62 -694.56,-357.29 -694.58,-359.61 -694.59,-361.44 -694.59,-362.52"/>
        <lane id="exit_2" index="2" speed="36.00" length="28.53" shape="-690.10,-334.79 -690.37,-335.92 -690.61,-337.81 -690.81,-340.14 -690.97,-342.81 -691.09,-345.71 -691.19,-348.73 -691.27,-351.76 -691.32,-354.67 -691.36,-357.33 -691.38,-359.64 -691.39,-361.45 -691.39,-362.52"/>
    </edge>

    <junction id="J0" type="priority" x="324.80" y="-217.76" incLanes="E0_0 E0_1 E0_2" intLanes=":J0_0_0 :J0_0_1 :J0_0_2" shape="324.41,-208.16 325.24,-217.72 324.91,-217.75 324.80,-217.75 324.68,-217.76 324.36,-217.76">
        <request index="0" response="000" foes="000" cont="0"/>
        <request index="1" response="000" foes="000" cont="0"/>
        <request index="2" response="000" foes="000" cont="0"/>
    </junction>
    <junction id="J1" type="priority" x="44.89" y="-216.12" incLanes="E1_0 E1_1 E1_2" intLanes=":J1_0_0 :J1_0_1" shape="48.52,-206.54 48.46,-216.14 45.44,-215.30 43.51,-213.76 42.28,-213.17 40.49,-212.94 40.50,-206.54">
        <request index="0" response="00" foes="00" cont="0"/>
        <request index="1" response="00" foes="00" cont="0"/>
    </junction>
    <junction id="J13" type="dead_end" x="-606.21" y="-21.96" incLanes="" intLanes="" shape="-606.21,-21.96 -606.21,-31.56"/>
    <junction id="J14" type="priority" x="326.90" y="-22.23" incLanes="entry_0 entry_1 entry_2" intLanes=":J14_0_0 :J14_0_1 :J14_0_2" shape="327.17,-22.24 326.82,-31.83 326.63,-31.83 326.63,-22.23">
        <request index="0" response="000" foes="000" cont="0"/>
        <request index="1" response="000" foes="000" cont="0"/>
        <request index="2" response="000" foes="000" cont="0"/>
    </junction>
    <junction id="J15" type="priority" x="451.63" y="-112.26" incLanes="E9_0 E9_1 E9_2" intLanes=":J15_0_0 :J15_0_1 :J15_0_2" shape="451.60,-112.68 442.02,-112.09 451.62,-111.84 451.63,-112.15 451.63,-112.26 451.62,-112.37">
        <request index="0" response="000" foes="000" cont="0"/>
        <request index="1" response="000" foes="000" cont="0"/>
        <request index="2" response="000" foes="000" cont="0"/>
    </junction>
    <junction id="J17" type="priority" x="-294.65" y="-215.76" incLanes="E1.444_0 E1.444_1" intLanes=":J17_0_0 :J17_0_1 :J17_0_2" shape="-291.08,-206.18 -291.08,-212.58 -294.10,-213.41 -295.06,-214.18 -296.02,-214.95 -297.25,-215.55 -299.03,-215.80 -299.11,-206.20">
        <request index="0" response="000" foes="000" cont="0"/>
        <request index="1" response="000" foes="000" cont="0"/>
        <request index="2" response="000" foes="000" cont="0"/>
    </junction>
    <junction id="J18" type="priority" x="-499.14" y="-217.50" incLanes="E12_0 E12_1 E12_2" intLanes=":J18_0_0 :J18_0_1 :J18_0_2" shape="-499.11,-207.90 -499.03,-217.50 -499.25,-217.50 -499.46,-207.90">
        <request index="0" response="000" foes="000" cont="0"/>
        <request index="1" response="000" foes="000" cont="0"/>
        <request index="2" response="000" foes="000" cont="0"/>
    </junction>
    <junction id="J2" type="priority" x="-559.95" y="-223.18" incLanes="E2_0 E2_1 E2_2" intLanes=":J2_0_0 :J2_0_1 :J2_0_2" shape="-562.34,-213.88 -559.82,-223.15 -560.07,-223.21 -562.69,-213.98">
        <request index="0" response="000" foes="000" cont="0"/>
        <request index="1" response="000" foes="000" cont="0"/>
        <request index="2" response="000" foes="000" cont="0"/>
    </junction>
    <junction id="J23" type="priority" x="-689.79" y="-362.67" incLanes="exit_0 exit_1 exit_2" intLanes=":J23_0_0 :J23_0_1 :J23_0_2" shape="-699.39,-362.52 -689.79,-362.52 -689.79,-362.82 -699.39,-362.83">
        <request index="0" response="000" foes="000" cont="0"/>
        <request index="1" response="000" foes="000" cont="0"/>
        <request index="2" response="000" foes="000" cont="0"/>
    </junction>
    <junction id="J24" type="dead_end" x="-688.73" y="-971.93" incLanes="E14_0 E14_1 E14_2" intLanes="" shape="-698.33,-971.95 -688.73,-971.93"/>
    <junction id="J3" type="priority" x="-602.47" y="-236.85" incLanes="E3_0 E3_1 E3_2" intLanes=":J3_0_0 :J3_0_1 :J3_0_2" shape="-606.34,-228.07 -602.33,-236.79 -602.60,-236.91 -606.64,-228.20">
        <request index="0" response="000" foes="000" cont="0"/>
        <request index="1" response="000" foes="000" cont="0"/>
        <request index="2" response="000" foes="000" cont="0"/>
    </junction>
    <junction id="J4" type="priority" x="-634.36" y="-253.05" incLanes="E4_0 E4_1 E4_2" intLanes=":J4_0_0 :J4_0_1 :J4_0_2" shape="-640.07,-245.34 -634.24,-252.96 -634.46,-253.13 -640.36,-245.56">
        <request index="0" response="000" foes="000" cont="0"/>
        <request index="1" response="000" foes="000" cont="0"/>
        <request index="2" response="000" foes="000" cont="0"/>
    </junction>
    <junction id="J5" type="priority" x="-663.72" y="-279.37" incLanes="E5_0 E5_1 E5_2" intLanes=":J5_0_0 :J5_0_1 :J5_0_2" shape="-671.60,-273.89 -663.67,-279.30 -663.77,-279.44 -671.82,-274.22">
        <request index="0" response="000" foes="000" cont="0"/>
        <request index="1" response="000" foes="000" cont="0"/>
        <request index="2" response="000" foes="000" cont="0"/>
    </junction>
    <junction id="J6" type="priority" x="-677.89" y="-305.18" incLanes="E6_0 E6_1 E6_2" intLanes=":J6_0_0 :J6_0_1 :J6_0_2" shape="-686.68,-301.32 -677.85,-305.08 -677.93,-305.28 -686.83,-301.67">
        <request index="0" response="000" foes="000" cont="0"/>
        <request index="1" response="000" foes="000" cont="0"/>
        <request index="2" response="000" foes="000" cont="0"/>
    </junction>
    <junction id="J7" type="priority" x="-688.52" y="-335.05" incLanes="E7_0 E7_1 E7_2" intLanes=":J7_0_0 :J7_0_1 :J7_0_2" shape="-697.75,-332.42 -688.49,-334.95 -688.54,-335.15 -697.89,-332.97">
        <request index="0" response="000" foes="000" cont="0"/>
        <request index="1" response="000" foes="000" cont="0"/>
        <request index="2" response="000" foes="000" cont="0"/>
    </junction>

    <connection from="E0" to="E1" fromLane="0" toLane="0" via=":J0_0_0" dir="s" state="M"/>
    <connection from="E0" to="E1" fromLane="1" toLane="1" via=":J0_0_1" dir="s" state="M"/>
    <connection from="E0" to="E1" fromLane="2" toLane="2" via=":J0_0_2" dir="s" state="M"/>
    <connection from="E1" to="E1.444" fromLane="0" toLane="0" via=":J1_0_0" dir="s" state="M"/>
    <connection from="E1" to="E1.444" fromLane="1" toLane="1" via=":J1_0_1" dir="s" state="M"/>
    <connection from="E1.444" to="E12" fromLane="0" toLane="0" via=":J17_0_0" dir="s" state="M"/>
    <connection from="E1.444" to="E12" fromLane="1" toLane="1" via=":J17_0_1" dir="s" state="M"/>
    <connection from="E1.444" to="E12" fromLane="1" toLane="2" via=":J17_0_2" dir="s" state="M"/>
    <connection from="E12" to="E2" fromLane="0" toLane="0" via=":J18_0_0" dir="s" state="M"/>
    <connection from="E12" to="E2" fromLane="1" toLane="1" via=":J18_0_1" dir="s" state="M"/>
    <connection from="E12" to="E2" fromLane="2" toLane="2" via=":J18_0_2" dir="s" state="M"/>
    <connection from="E2" to="E3" fromLane="0" toLane="0" via=":J2_0_0" dir="s" state="M"/>
    <connection from="E2" to="E3" fromLane="1" toLane="1" via=":J2_0_1" dir="s" state="M"/>
    <connection from="E2" to="E3" fromLane="2" toLane="2" via=":J2_0_2" dir="s" state="M"/>
    <connection from="E3" to="E4" fromLane="0" toLane="0" via=":J3_0_0" dir="s" state="M"/>
    <connection from="E3" to="E4" fromLane="1" toLane="1" via=":J3_0_1" dir="s" state="M"/>
    <connection from="E3" to="E4" fromLane="2" toLane="2" via=":J3_0_2" dir="s" state="M"/>
    <connection from="E4" to="E5" fromLane="0" toLane="0" via=":J4_0_0" dir="s" state="M"/>
    <connection from="E4" to="E5" fromLane="1" toLane="1" via=":J4_0_1" dir="s" state="M"/>
    <connection from="E4" to="E5" fromLane="2" toLane="2" via=":J4_0_2" dir="s" state="M"/>
    <connection from="E5" to="E6" fromLane="0" toLane="0" via=":J5_0_0" dir="s" state="M"/>
    <connection from="E5" to="E6" fromLane="1" toLane="1" via=":J5_0_1" dir="s" state="M"/>
    <connection from="E5" to="E6" fromLane="2" toLane="2" via=":J5_0_2" dir="s" state="M"/>
    <connection from="E6" to="E7" fromLane="0" toLane="0" via=":J6_0_0" dir="s" state="M"/>
    <connection from="E6" to="E7" fromLane="1" toLane="1" via=":J6_0_1" dir="s" state="M"/>
    <connection from="E6" to="E7" fromLane="2" toLane="2" via=":J6_0_2" dir="s" state="M"/>
    <connection from="E7" to="exit" fromLane="0" toLane="0" via=":J7_0_0" dir="s" state="M"/>
    <connection from="E7" to="exit" fromLane="1" toLane="1" via=":J7_0_1" dir="s" state="M"/>
    <connection from="E7" to="exit" fromLane="2" toLane="2" via=":J7_0_2" dir="s" state="M"/>
    <connection from="E9" to="E0" fromLane="0" toLane="0" via=":J15_0_0" dir="s" state="M"/>
    <connection from="E9" to="E0" fromLane="1" toLane="1" via=":J15_0_1" dir="s" state="M"/>
    <connection from="E9" to="E0" fromLane="2" toLane="2" via=":J15_0_2" dir="s" state="M"/>
    <connection from="entry" to="E9" fromLane="0" toLane="0" via=":J14_0_0" dir="s" state="M"/>