<?xml version="1.0" encoding="UTF-8"?>

<!-- generated on 2024-10-04 19:41:56 by Eclipse SUMO netedit Version 1.20.0
<configuration xmlns:xsi="http://www.w3.org/2001/XMLSchema-instance" xsi:noNamespaceSchemaLocation="http://sumo.dlr.de/xsd/neteditConfiguration.xsd">

    <input>
        <sumo-net-file value="C:\Users\nieder\Documents\Uni\Masterarbeit\Projekt\VerkehrsflussoptimierungDurchCarToCarCommunication\src\main\sumo\ende_einer_spur\network.net.xml"/>
    </input>

    <output>
        <output-file value="C:\Users\nieder\Documents\Uni\Masterarbeit\Projekt\VerkehrsflussoptimierungDurchCarToCarCommunication\src\main\sumo\ende_einer_spur\network.net.xml"/>
        <output.street-names value="true"/>
    </output>

    <processing>
        <geometry.min-radius.fix.railways value="false"/>
        <geometry.max-grade.fix value="false"/>
        <offset.disable-normalization value="true"/>
        <lefthand value="0"/>
    </processing>

    <junctions>
        <no-turnarounds value="true"/>
        <junctions.corner-detail value="5"/>
        <junctions.limit-turn-speed value="5.50"/>
        <rectangular-lane-cut value="0"/>
    </junctions>

    <pedestrian>
        <walkingareas value="0"/>
    </pedestrian>

</configuration>
-->

<net version="1.20" junctionCornerDetail="5" limitTurnSpeed="5.50" xmlns:xsi="http://www.w3.org/2001/XMLSchema-instance" xsi:noNamespaceSchemaLocation="http://sumo.dlr.de/xsd/net_file.xsd">

    <location netOffset="0.00,0.00" convBoundary="-689.79,-971.93,446.17,-73.68" origBoundary="-10000000000.00,-10000000000.00,10000000000.00,10000000000.00" projParameter="!"/>

    <edge id=":J0_0" function="internal">
        <lane id=":J0_0_0" index="0" speed="13.89" length="0.67" shape="324.40,-209.74 324.33,-209.75 324.29,-209.75 324.24,-209.76 324.17,-209.76"/>
        <lane id=":J0_0_1" index="1" speed="13.89" length="0.67" shape="324.83,-212.91 324.63,-212.94 324.49,-212.95 324.36,-212.96 324.16,-212.96"/>
        <lane id=":J0_0_2" index="2" speed="13.89" length="0.67" shape="325.25,-216.08 324.92,-216.13 324.70,-216.15 324.47,-216.16 324.14,-216.16"/>
    </edge>
    <edge id=":J1_0" function="internal">
        <lane id=":J1_0_0" index="0" speed="13.89" length="8.00" shape="48.51,-208.14 40.50,-208.14"/>
        <lane id=":J1_0_1" index="1" speed="13.89" length="8.00" shape="48.49,-211.34 40.50,-211.34"/>
    </edge>
    <edge id=":J14_0" function="internal">
        <lane id=":J14_0_0" index="0" speed="33.30" length="0.31" shape="330.69,-82.84 330.79,-82.84"/>
        <lane id=":J14_0_1" index="1" speed="33.30" length="0.31" shape="330.69,-79.64 331.00,-79.65"/>
        <lane id=":J14_0_2" index="2" speed="33.30" length="0.31" shape="330.70,-76.44 331.22,-76.46"/>
    </edge>
    <edge id=":J15_0" function="internal">
        <lane id=":J15_0_0" index="0" speed="23.59" length="0.32" shape="436.52,-134.30 436.54,-134.33 436.54,-134.35 436.55,-134.38 436.56,-134.41"/>
        <lane id=":J15_0_1" index="1" speed="23.59" length="0.32" shape="439.41,-132.93 439.53,-133.23"/>
        <lane id=":J15_0_2" index="2" speed="23.59" length="0.32" shape="442.29,-131.56 442.51,-132.05"/>
    </edge>
    <edge id=":J17_0" function="internal">
        <lane id=":J17_0_0" index="0" speed="23.59" length="8.26" shape="-291.08,-207.78 -299.10,-207.80"/>
        <lane id=":J17_0_1" index="1" speed="23.59" length="8.26" shape="-291.08,-210.98 -299.07,-211.00"/>
        <lane id=":J17_0_2" index="2" speed="23.59" length="8.26" shape="-291.08,-210.98 -293.53,-211.48 -295.06,-212.58 -296.59,-213.68 -299.04,-214.20"/>
    </edge>
    <edge id=":J18_0" function="internal">
        <lane id=":J18_0_0" index="0" speed="23.59" length="0.29" shape="-499.09,-209.50 -499.43,-209.50"/>
        <lane id=":J18_0_1" index="1" speed="23.59" length="0.29" shape="-499.07,-212.70 -499.36,-212.70"/>
        <lane id=":J18_0_2" index="2" speed="23.59" length="0.29" shape="-499.04,-215.90 -499.29,-215.90"/>
    </edge>
    <edge id=":J2_0" function="internal">
        <lane id=":J2_0_0" index="0" speed="13.89" length="0.31" shape="-561.92,-215.43 -562.25,-215.52"/>
        <lane id=":J2_0_1" index="1" speed="13.89" length="0.31" shape="-561.08,-218.51 -561.38,-218.60"/>
        <lane id=":J2_0_2" index="2" speed="13.89" length="0.31" shape="-560.24,-221.60 -560.50,-221.67"/>
    </edge>
    <edge id=":J23_0" function="internal">
        <lane id=":J23_0_0" index="0" speed="23.59" length="0.30" shape="-697.79,-362.52 -697.79,-362.83"/>
        <lane id=":J23_0_1" index="1" speed="23.59" length="0.30" shape="-694.59,-362.52 -694.59,-362.82"/>
        <lane id=":J23_0_2" index="2" speed="23.59" length="0.30" shape="-691.39,-362.52 -691.39,-362.82"/>
    </edge>
    <edge id=":J3_0" function="internal">
        <lane id=":J3_0_0" index="0" speed="13.89" length="0.31" shape="-605.68,-229.52 -605.97,-229.65"/>
        <lane id=":J3_0_1" index="1" speed="13.89" length="0.31" shape="-604.34,-232.43 -604.62,-232.56"/>
        <lane id=":J3_0_2" index="2" speed="13.89" length="0.31" shape="-603.00,-235.33 -603.27,-235.46"/>
    </edge>
    <edge id=":J4_0" function="internal">
        <lane id=":J4_0_0" index="0" speed="13.89" length="0.32" shape="-639.10,-246.61 -639.38,-246.82"/>
        <lane id=":J4_0_1" index="1" speed="13.89" length="0.32" shape="-637.16,-249.15 -637.41,-249.34"/>
        <lane id=":J4_0_2" index="2" speed="13.89" length="0.32" shape="-635.21,-251.69 -635.44,-251.87"/>
    </edge>
    <edge id=":J5_0" function="internal">
        <lane id=":J5_0_0" index="0" speed="13.89" length="0.11" shape="-670.33,-274.86 -670.43,-275.01"/>
        <lane id=":J5_0_1" index="1" speed="13.89" length="0.11" shape="-667.68,-276.66 -667.75,-276.76"/>
        <lane id=":J5_0_2" index="2" speed="13.89" length="0.11" shape="-665.04,-278.47 -665.06,-278.50"/>
    </edge>
    <edge id=":J6_0" function="internal">
        <lane id=":J6_0_0" index="0" speed="13.89" length="0.29" shape="-685.21,-301.95 -685.34,-302.27"/>
        <lane id=":J6_0_1" index="1" speed="13.89" length="0.29" shape="-682.26,-303.20 -682.38,-303.47"/>
        <lane id=":J6_0_2" index="2" speed="13.89" length="0.29" shape="-679.32,-304.45 -679.41,-304.68"/>
    </edge>
    <edge id=":J7_0" function="internal">
        <lane id=":J7_0_0" index="0" speed="13.89" length="0.39" shape="-696.21,-332.84 -696.33,-333.34"/>
        <lane id=":J7_0_1" index="1" speed="13.89" length="0.39" shape="-693.12,-333.68 -693.22,-334.06"/>
        <lane id=":J7_0_2" index="2" speed="13.89" length="0.39" shape="-690.04,-334.53 -690.10,-334.79"/>
    </edge>

    <edge id="E0" from="J15" to="J0" priority="-1" shape="443.85,-131.10 444.72,-133.30 445.39,-135.53 445.85,-137.76 446.11,-140.01 446.17,-142.27 446.05,-144.54 445.73,-146.81 445.24,-149.09 444.56,-151.37 443.72,-153.65 442.70,-155.92 441.52,-158.19 440.17,-160.46 438.67,-162.71 437.02,-164.95 435.22,-167.18 433.27,-169.39 431.19,-171.58 428.97,-173.75 426.61,-175.90 424.14,-178.03 421.53,-180.12 418.81,-182.19 415.98,-184.22 413.03,-186.23 409.98,-188.19 406.83,-190.12 403.58,-192.00 400.24,-193.85 396.81,-195.64 393.30,-197.39 389.70,-199.09 387.88,-199.93 386.03,-200.74 384.17,-201.55 382.29,-202.34 380.40,-203.12 378.48,-203.88 376.56,-204.63 374.61,-205.36 372.66,-206.08 370.68,-206.78 368.70,-207.46 366.70,-208.14 364.69,-208.79 362.66,-209.43 360.63,-210.05 358.58,-210.65 356.53,-211.24 354.46,-211.81 352.39,-212.36 350.30,-212.89 348.21,-213.40 346.11,-213.90 344.00,-214.38 341.89,-214.83 339.77,-215.27 337.64,-215.69 335.51,-216.09 333.38,-216.46 331.24,-216.82 329.09,-217.15 326.95,-217.47 324.80,-217.76">
        <lane id="E0_0" index="0" speed="13.89" length="153.26" shape="436.56,-134.41 437.16,-135.93 437.63,-137.49 437.94,-139.03 438.12,-140.58 438.16,-142.16 438.08,-143.77 437.85,-145.41 437.48,-147.10 436.97,-148.84 436.31,-150.62 435.50,-152.43 434.53,-154.30 433.40,-156.19 432.12,-158.12 430.68,-160.06 429.11,-162.02 427.37,-163.99 425.49,-165.96 423.48,-167.93 421.30,-169.91 419.03,-171.88 416.61,-173.81 414.06,-175.76 411.40,-177.66 408.62,-179.56 405.73,-181.41 402.74,-183.25 399.64,-185.04 396.45,-186.80 393.17,-188.51 389.81,-190.19 386.31,-191.85 384.60,-192.63 382.83,-193.41 381.02,-194.19 379.21,-194.95 377.40,-195.70 375.55,-196.43 373.70,-197.16 371.82,-197.86 369.94,-198.56 368.05,-199.23 366.11,-199.89 364.18,-200.55 362.26,-201.17 360.29,-201.79 358.34,-202.39 356.35,-202.97 354.36,-203.54 352.37,-204.09 350.38,-204.62 348.37,-205.13 346.34,-205.62 344.30,-206.11 342.28,-206.57 340.24,-207.00 338.18,-207.43 336.13,-207.83 334.09,-208.22 332.03,-208.57 329.97,-208.92 327.89,-209.24 325.82,-209.55 324.40,-209.74"/>
        <lane id="E0_1" index="1" speed="13.89" length="153.26" shape="439.53,-133.23 440.18,-134.88 440.73,-136.71 441.11,-138.52 441.32,-140.35 441.37,-142.21 441.27,-144.08 441.00,-145.97 440.59,-147.90 440.00,-149.85 439.27,-151.83 438.38,-153.83 437.32,-155.85 436.11,-157.90 434.74,-159.95 433.22,-162.02 431.55,-164.08 429.73,-166.15 427.77,-168.21 425.68,-170.26 423.43,-172.31 421.07,-174.34 418.58,-176.34 415.96,-178.33 413.23,-180.29 410.38,-182.23 407.43,-184.12 404.37,-186.00 401.22,-187.82 397.97,-189.62 394.63,-191.36 391.20,-193.07 387.66,-194.74 385.91,-195.55 384.11,-196.34 382.28,-197.14 380.44,-197.91 378.60,-198.67 376.72,-199.41 374.85,-200.15 372.94,-200.86 371.03,-201.57 369.10,-202.25 367.15,-202.92 365.19,-203.58 363.23,-204.22 361.24,-204.85 359.25,-205.45 357.24,-206.04 355.23,-206.62 353.21,-207.18 351.18,-207.71 349.14,-208.23 347.09,-208.73 345.02,-209.22 342.97,-209.69 340.90,-210.13 338.82,-210.57 336.73,-210.98 334.66,-211.37 332.57,-211.73 330.48,-212.08 328.37,-212.40 326.27,-212.72 324.83,-212.91"/>
        <lane id="E0_2" index="2" speed="13.89" length="153.26" shape="442.51,-132.05 443.21,-133.83 443.84,-135.92 444.27,-138.01 444.51,-140.12 444.57,-142.25 444.46,-144.39 444.15,-146.53 443.69,-148.69 443.04,-150.86 442.24,-153.04 441.26,-155.22 440.12,-157.41 438.82,-159.61 437.36,-161.79 435.75,-163.97 434.00,-166.15 432.09,-168.31 430.05,-170.46 427.87,-172.59 425.55,-174.70 423.12,-176.80 420.55,-178.86 417.86,-180.90 415.06,-182.91 412.15,-184.90 409.13,-186.83 406.01,-188.75 402.79,-190.61 399.48,-192.44 396.08,-194.21 392.60,-195.95 389.02,-197.64 387.22,-198.47 385.39,-199.27 383.54,-200.08 381.67,-200.86 379.80,-201.64 377.89,-202.39 375.99,-203.14 374.05,-203.86 372.12,-204.58 370.15,-205.27 368.18,-205.95 366.20,-206.62 364.20,-207.27 362.19,-207.90 360.17,-208.52 358.13,-209.11 356.10,-209.70 354.04,-210.27 351.99,-210.81 349.91,-211.34 347.84,-211.84 345.75,-212.34 343.66,-212.82 341.56,-213.26 339.45,-213.70 337.34,-214.12 335.23,-214.52 333.11,-214.88 330.99,-215.24 328.85,-215.57 326.72,-215.89 325.25,-216.08"/>
    </edge>
    <edge id="E1" from="J0" to="J1" priority="-1">
        <lane id="E1_0" index="0" speed="13.89" length="275.67" shape="324.17,-209.76 48.51,-208.14"/>
        <lane id="E1_1" index="1" speed="13.89" length="275.67" shape="324.16,-212.96 48.49,-211.34"/>
        <lane id="E1_2" index="2" speed="13.89" length="275.67" shape="324.14,-216.16 48.47,-214.54"/>
    </edge>
    <edge id="E1.444" from="J1" to="J17" priority="-1" shape="44.07,-212.94 -295.47,-212.58">
        <lane id="E1.444_0" index="0" speed="13.89" length="331.58" shape="40.50,-208.14 -291.08,-207.78"/>
        <lane id="E1.444_1" index="1" speed="13.89" length="331.58" shape="40.50,-211.34 -291.08,-210.98"/>
    </edge>
    <edge id="E12" from="J17" to="J18" priority="-1">
        <lane id="E12_0" index="0" speed="33.30" length="200.00" shape="-299.10,-207.80 -499.09,-209.50"/>
        <lane id="E12_1" index="1" speed="33.30" length="200.00" shape="-299.07,-211.00 -499.07,-212.70"/>
        <lane id="E12_2" index="2" speed="33.30" length="200.00" shape="-299.04,-214.20 -499.04,-215.90"/>
    </edge>
    <edge id="E14" from="J23" to="J24" name="exit" priority="-1">
        <lane id="E14_0" index="0" speed="33.30" length="609.12" shape="-697.79,-362.83 -696.73,-971.94"/>
        <lane id="E14_1" index="1" speed="33.30" length="609.12" shape="-694.59,-362.82 -693.53,-971.94"/>
        <lane id="E14_2" index="2" speed="33.30" length="609.12" shape="-691.39,-362.82 -690.33,-971.93"/>
    </edge>
    <edge id="E2" from="J18" to="J2" priority="-1" shape="-499.14,-217.50 -500.06,-217.52 -501.24,-217.56 -502.65,-217.62 -504.28,-217.70 -506.11,-217.80 -508.11,-217.92 -510.28,-218.05 -512.58,-218.20 -515.01,-218.37 -517.54,-218.54 -520.15,-218.74 -522.83,-218.94 -525.55,-219.15 -528.30,-219.38 -531.06,-219.61 -533.81,-219.85 -536.53,-220.09 -539.20,-220.34 -541.80,-220.60 -544.32,-220.86 -546.73,-221.12 -549.02,-221.39 -551.16,-221.65 -553.14,-221.91 -554.94,-222.17 -556.54,-222.43 -557.92,-222.69 -559.07,-222.94 -559.95,-223.18">
        <lane id="E2_0" index="0" speed="13.89" length="62.05" shape="-499.43,-209.50 -500.29,-209.52 -501.55,-209.57 -503.02,-209.63 -504.70,-209.71 -506.57,-209.81 -508.59,-209.93 -510.78,-210.07 -513.12,-210.22 -515.56,-210.39 -518.11,-210.56 -520.75,-210.76 -523.44,-210.96 -526.19,-211.18 -528.97,-211.41 -531.74,-211.64 -534.51,-211.88 -537.25,-212.12 -539.97,-212.38 -542.61,-212.64 -545.16,-212.90 -547.63,-213.17 -549.97,-213.45 -552.16,-213.71 -554.23,-213.98 -556.15,-214.26 -557.92,-214.55 -559.50,-214.85 -560.95,-215.16 -561.92,-215.43"/>
        <lane id="E2_1" index="1" speed="13.89" length="62.05" shape="-499.36,-212.70 -500.20,-212.72 -501.43,-212.76 -502.87,-212.83 -504.53,-212.91 -506.39,-213.01 -508.40,-213.13 -510.58,-213.26 -512.90,-213.41 -515.34,-213.58 -517.88,-213.75 -520.51,-213.95 -523.19,-214.15 -525.93,-214.37 -528.70,-214.60 -531.47,-214.83 -534.23,-215.07 -536.96,-215.31 -539.66,-215.56 -542.29,-215.82 -544.82,-216.09 -547.27,-216.35 -549.59,-216.62 -551.76,-216.89 -553.79,-217.15 -555.67,-217.43 -557.37,-217.70 -558.87,-217.98 -560.20,-218.27 -561.08,-218.51"/>
        <lane id="E2_2" index="2" speed="13.89" length="62.05" shape="-499.29,-215.90 -500.11,-215.92 -501.30,-215.96 -502.72,-216.02 -504.36,-216.10 -506.20,-216.20 -508.21,-216.32 -510.38,-216.45 -512.69,-216.60 -515.12,-216.77 -517.65,-216.94 -520.27,-217.14 -522.95,-217.34 -525.68,-217.56 -528.43,-217.79 -531.20,-218.02 -533.95,-218.26 -536.67,-218.50 -539.35,-218.75 -541.96,-219.01 -544.49,-219.27 -546.91,-219.53 -549.21,-219.80 -551.36,-220.06 -553.36,-220.32 -555.18,-220.59 -556.82,-220.85 -558.24,-221.12 -559.45,-221.38 -560.24,-221.60"/>
    </edge>
    <edge id="E3" from="J2" to="J3" priority="-1" shape="-559.95,-223.18 -560.90,-223.45 -562.17,-223.82 -563.74,-224.28 -565.57,-224.82 -567.62,-225.43 -569.87,-226.10 -572.26,-226.83 -574.78,-227.59 -577.38,-228.39 -580.03,-229.21 -582.70,-230.04 -585.34,-230.88 -587.93,-231.70 -590.43,-232.51 -592.81,-233.30 -595.02,-234.04 -597.04,-234.74 -598.83,-235.38 -600.36,-235.95 -601.58,-236.44 -602.47,-236.85">
        <lane id="E3_0" index="0" speed="13.89" length="45.15" shape="-562.25,-215.52 -563.12,-215.76 -564.41,-216.14 -566.00,-216.61 -567.84,-217.15 -569.90,-217.76 -572.18,-218.44 -574.58,-219.17 -577.11,-219.94 -579.74,-220.75 -582.40,-221.57 -585.10,-222.41 -587.76,-223.25 -590.37,-224.08 -592.92,-224.91 -595.34,-225.71 -597.60,-226.47 -599.69,-227.19 -601.57,-227.86 -603.24,-228.49 -604.72,-229.08 -605.68,-229.52"/>
        <lane id="E3_1" index="1" speed="13.89" length="45.15" shape="-561.38,-218.60 -562.23,-218.84 -563.52,-219.21 -565.09,-219.68 -566.93,-220.22 -568.99,-220.83 -571.26,-221.50 -573.65,-222.24 -576.18,-223.00 -578.80,-223.80 -581.45,-224.63 -584.14,-225.46 -586.79,-226.30 -589.39,-227.13 -591.93,-227.95 -594.33,-228.75 -596.57,-229.50 -598.63,-230.21 -600.47,-230.87 -602.09,-231.47 -603.46,-232.02 -604.34,-232.43"/>
        <lane id="E3_2" index="2" speed="13.89" length="45.15" shape="-560.50,-221.67 -561.34,-221.91 -562.62,-222.28 -564.19,-222.75 -566.02,-223.29 -568.08,-223.90 -570.33,-224.57 -572.72,-225.30 -575.25,-226.06 -577.85,-226.86 -580.50,-227.68 -583.18,-228.51 -585.82,-229.35 -588.42,-230.18 -590.93,-230.99 -593.32,-231.78 -595.54,-232.53 -597.57,-233.23 -599.38,-233.88 -600.94,-234.46 -602.21,-234.97 -603.00,-235.33"/>
    </edge>
    <edge id="E4" from="J3" to="J4" priority="-1" shape="-602.47,-236.85 -603.46,-237.31 -604.87,-237.96 -606.64,-238.78 -608.70,-239.75 -611.00,-240.83 -613.47,-242.01 -616.05,-243.25 -618.69,-244.53 -621.32,-245.82 -623.88,-247.10 -626.31,-248.34 -628.55,-249.52 -630.53,-250.60 -632.20,-251.57 -633.50,-252.39 -634.36,-253.05">
        <lane id="E4_0" index="0" speed="13.89" length="36.56" shape="-605.97,-229.65 -606.82,-230.05 -608.23,-230.70 -610.03,-231.53 -612.10,-232.51 -614.43,-233.60 -616.93,-234.80 -619.53,-236.05 -622.20,-237.34 -624.87,-238.65 -627.49,-239.96 -629.99,-241.24 -632.33,-242.47 -634.45,-243.62 -636.33,-244.72 -638.02,-245.79 -639.10,-246.61"/>
        <lane id="E4_1" index="1" speed="13.89" length="36.56" shape="-604.62,-232.56 -605.47,-232.95 -606.88,-233.60 -608.67,-234.43 -610.74,-235.41 -613.06,-236.49 -615.54,-237.68 -618.14,-238.93 -620.79,-240.22 -623.45,-241.52 -626.04,-242.82 -628.52,-244.08 -630.82,-245.29 -632.88,-246.41 -634.68,-247.46 -636.21,-248.43 -637.16,-249.15"/>
        <lane id="E4_2" index="2" speed="13.89" length="36.56" shape="-603.27,-235.46 -604.13,-235.86 -605.54,-236.51 -607.32,-237.33 -609.38,-238.30 -611.69,-239.38 -614.16,-240.57 -616.75,-241.81 -619.39,-243.09 -622.03,-244.39 -624.60,-245.67 -627.05,-246.92 -629.31,-248.11 -631.31,-249.20 -633.03,-250.20 -634.40,-251.07 -635.21,-251.69"/>
    </edge>
    <edge id="E5" from="J4" to="J5" priority="-1" shape="-634.36,-253.05 -635.18,-253.69 -636.32,-254.60 -637.73,-255.74 -639.37,-257.08 -641.20,-258.59 -643.19,-260.24 -645.28,-262.00 -647.43,-263.83 -649.62,-265.71 -651.79,-267.60 -653.90,-269.47 -655.92,-271.29 -657.81,-273.03 -659.51,-274.65 -660.99,-276.13 -662.22,-277.43 -663.14,-278.52 -663.72,-279.37">
        <lane id="E5_0" index="0" speed="13.89" length="40.86" shape="-639.38,-246.82 -640.14,-247.42 -641.33,-248.36 -642.78,-249.53 -644.45,-250.90 -646.30,-252.43 -648.32,-254.10 -650.45,-255.89 -652.63,-257.75 -654.85,-259.66 -657.07,-261.59 -659.23,-263.50 -661.31,-265.37 -663.28,-267.19 -665.09,-268.92 -666.72,-270.55 -668.17,-272.08 -669.52,-273.67 -670.33,-274.86"/>
        <lane id="E5_1" index="1" speed="13.89" length="40.86" shape="-637.41,-249.34 -638.16,-249.93 -639.33,-250.86 -640.76,-252.02 -642.42,-253.37 -644.26,-254.89 -646.27,-256.56 -648.38,-258.34 -650.55,-260.18 -652.76,-262.08 -654.96,-263.99 -657.10,-265.89 -659.15,-267.74 -661.09,-269.53 -662.86,-271.21 -664.43,-272.78 -665.79,-274.22 -666.97,-275.61 -667.68,-276.66"/>
        <lane id="E5_2" index="2" speed="13.89" length="40.86" shape="-635.44,-251.87 -636.17,-252.44 -637.32,-253.35 -638.74,-254.50 -640.39,-255.84 -642.22,-257.36 -644.22,-259.01 -646.31,-260.78 -648.47,-262.61 -650.67,-264.50 -652.85,-266.40 -654.97,-268.28 -657.00,-270.11 -658.90,-271.86 -660.63,-273.50 -662.14,-275.01 -663.41,-276.36 -664.42,-277.55 -665.04,-278.47"/>
    </edge>
    <edge id="E6" from="J5" to="J6" priority="-1" shape="-663.72,-279.37 -664.35,-280.34 -665.23,-281.81 -666.33,-283.68 -667.59,-285.86 -668.97,-288.27 -670.40,-290.82 -671.84,-293.42 -673.24,-295.98 -674.55,-298.42 -675.72,-300.65 -676.71,-302.57 -677.44,-304.12 -677.89,-305.18">
        <lane id="E6_0" index="0" speed="13.89" length="30.19" shape="-670.43,-275.01 -671.15,-276.13 -672.11,-277.73 -673.24,-279.65 -674.52,-281.87 -675.93,-284.33 -677.39,-286.93 -678.85,-289.56 -680.27,-292.17 -681.62,-294.67 -682.82,-296.96 -683.88,-299.02 -684.73,-300.82 -685.21,-301.95"/>
        <lane id="E6_1" index="1" speed="13.89" length="30.19" shape="-667.75,-276.76 -668.43,-277.81 -669.36,-279.36 -670.48,-281.26 -671.75,-283.47 -673.15,-285.90 -674.59,-288.48 -676.05,-291.11 -677.46,-293.69 -678.79,-296.17 -679.98,-298.43 -681.01,-300.44 -681.81,-302.14 -682.26,-303.20"/>
        <lane id="E6_2" index="2" speed="13.89" length="30.19" shape="-665.06,-278.50 -665.71,-279.50 -666.61,-280.99 -667.71,-282.87 -668.98,-285.06 -670.36,-287.48 -671.80,-290.04 -673.24,-292.65 -674.65,-295.22 -675.96,-297.67 -677.14,-299.91 -678.14,-301.86 -678.90,-303.46 -679.32,-304.45"/>
    </edge>
    <edge id="E7" from="J6" to="J7" priority="-1" shape="-677.89,-305.18 -678.32,-306.24 -678.92,-307.78 -679.66,-309.74 -680.52,-312.02 -681.46,-314.55 -682.44,-317.25 -683.45,-320.03 -684.45,-322.82 -685.41,-325.53 -686.29,-328.08 -687.08,-330.38 -687.73,-332.37 -688.22,-333.95 -688.52,-335.05">
        <lane id="E7_0" index="0" speed="13.89" length="32.07" shape="-685.34,-302.27 -685.76,-303.29 -686.39,-304.92 -687.14,-306.92 -688.01,-309.22 -688.97,-311.79 -689.96,-314.52 -690.98,-317.31 -691.99,-320.13 -692.96,-322.89 -693.85,-325.48 -694.66,-327.83 -695.35,-329.94 -695.89,-331.69 -696.21,-332.84"/>
        <lane id="E7_1" index="1" speed="13.89" length="32.07" shape="-682.38,-303.47 -682.78,-304.47 -683.40,-306.06 -684.15,-308.05 -685.02,-310.34 -685.97,-312.90 -686.95,-315.61 -687.97,-318.40 -688.97,-321.21 -689.94,-323.95 -690.83,-326.52 -691.63,-328.85 -692.30,-330.91 -692.82,-332.59 -693.12,-333.68"/>
        <lane id="E7_2" index="2" speed="13.89" length="32.07" shape="-679.41,-304.68 -679.81,-305.65 -680.41,-307.21 -681.16,-309.18 -682.02,-311.46 -682.96,-314.00 -683.94,-316.70 -684.96,-319.49 -685.96,-322.28 -686.92,-325.00 -687.80,-327.56 -688.60,-329.87 -689.25,-331.88 -689.75,-333.50 -690.04,-334.53"/>
    </edge>
    <edge id="E9" from="J14" to="J15" priority="-1" shape="331.01,-74.84 332.82,-74.96 334.68,-75.13 336.57,-75.35 338.50,-75.63 340.46,-75.96 342.46,-76.34 344.49,-76.77 346.54,-77.24 348.62,-77.76 350.73,-78.32 352.85,-78.93 355.00,-79.57 357.16,-80.25 359.35,-80.97 361.54,-81.73 363.75,-82.52 365.96,-83.34 368.19,-84.20 370.42,-85.08 372.65,-85.99 374.89,-86.93 377.13,-87.89 379.36,-88.88 381.59,-89.89 383.81,-90.92 386.02,-91.97 388.23,-93.03 390.42,-94.11 392.59,-95.21 394.75,-96.31 396.89,-97.43 399.01,-98.56 401.11,-99.70 403.18,-100.84 405.22,-101.99 407.24,-103.14 409.22,-104.29 411.17,-105.44 413.09,-106.59 414.97,-107.74 416.81,-108.89 418.60,-110.03 420.36,-111.16 422.07,-112.28 423.73,-113.40 425.34,-114.50 426.90,-115.58 428.41,-116.66 429.86,-117.71 431.26,-118.75 432.59,-119.77 433.86,-120.77 435.07,-121.74 436.21,-122.69 437.29,-123.61 438.29,-124.51 439.23,-125.38 440.08,-126.22 440.87,-127.02 441.57,-127.79 442.20,-128.53 442.74,-129.23 443.20,-129.90 443.57,-130.52 443.85,-131.10">
        <lane id="E9_0" index="0" speed="33.30" length="122.71" shape="330.79,-82.84 332.19,-82.94 333.85,-83.09 335.53,-83.28 337.26,-83.53 339.05,-83.83 340.88,-84.18 342.77,-84.58 344.68,-85.02 346.62,-85.51 348.60,-86.03 350.60,-86.61 352.66,-87.22 354.71,-87.87 356.79,-88.55 358.88,-89.28 361.01,-90.04 363.13,-90.82 365.28,-91.65 367.44,-92.50 369.59,-93.38 371.77,-94.30 373.93,-95.22 376.09,-96.18 378.26,-97.16 380.41,-98.16 382.57,-99.19 384.73,-100.22 386.84,-101.27 388.97,-102.34 391.08,-103.42 393.15,-104.50 395.22,-105.61 397.27,-106.72 399.29,-107.83 401.28,-108.95 403.25,-110.08 405.18,-111.19 407.08,-112.32 408.95,-113.43 410.76,-114.54 412.54,-115.66 414.29,-116.77 416.01,-117.87 417.64,-118.94 419.24,-120.02 420.81,-121.09 422.30,-122.12 423.74,-123.15 425.13,-124.16 426.44,-125.14 427.68,-126.09 428.88,-127.03 430.01,-127.94 431.06,-128.81 432.02,-129.63 432.90,-130.42 433.70,-131.16 434.42,-131.88 435.07,-132.53 435.57,-133.08 435.99,-133.57 436.28,-133.95 436.52,-134.30"/>
        <lane id="E9_1" index="1" speed="33.30" length="122.71" shape="331.00,-79.65 332.44,-79.75 334.18,-79.90 335.95,-80.11 337.76,-80.37 339.61,-80.68 341.51,-81.05 343.46,-81.46 345.42,-81.91 347.42,-82.41 349.45,-82.95 351.50,-83.54 353.59,-84.16 355.69,-84.82 357.81,-85.52 359.95,-86.26 362.11,-87.03 364.26,-87.83 366.45,-88.67 368.63,-89.53 370.81,-90.43 373.02,-91.35 375.21,-92.29 377.40,-93.26 379.59,-94.25 381.77,-95.26 383.95,-96.30 386.13,-97.35 388.27,-98.40 390.42,-99.49 392.55,-100.58 394.65,-101.67 396.74,-102.79 398.81,-103.91 400.84,-105.03 402.85,-106.17 404.85,-107.30 406.80,-108.43 408.72,-109.57 410.60,-110.70 412.45,-111.82 414.25,-112.95 416.01,-114.07 417.75,-115.19 419.41,-116.28 421.03,-117.37 422.62,-118.46 424.14,-119.51 425.61,-120.56 427.02,-121.58 428.37,-122.58 429.65,-123.56 430.87,-124.53 432.03,-125.46 433.12,-126.36 434.13,-127.22 435.05,-128.06 435.91,-128.85 436.69,-129.61 437.39,-130.32 437.97,-130.96 438.47,-131.56 438.86,-132.06 439.16,-132.50 439.35,-132.81 439.41,-132.93"/>
        <lane id="E9_2" index="2" speed="33.30" length="122.71" shape="331.22,-76.46 332.69,-76.56 334.51,-76.72 336.36,-76.94 338.25,-77.21 340.18,-77.53 342.14,-77.91 344.15,-78.33 346.17,-78.80 348.22,-79.31 350.30,-79.86 352.40,-80.47 354.53,-81.10 356.67,-81.77 358.84,-82.49 361.01,-83.24 363.20,-84.02 365.39,-84.84 367.61,-85.69 369.82,-86.56 372.04,-87.47 374.27,-88.40 376.49,-89.36 378.71,-90.34 380.92,-91.34 383.13,-92.37 385.33,-93.41 387.53,-94.47 389.70,-95.54 391.87,-96.64 394.02,-97.73 396.14,-98.84 398.25,-99.97 400.34,-101.10 402.40,-102.24 404.43,-103.38 406.44,-104.53 408.41,-105.67 410.35,-106.82 412.26,-107.96 414.13,-109.10 415.96,-110.24 417.74,-111.38 419.49,-112.50 421.18,-113.61 422.83,-114.72 424.43,-115.82 425.98,-116.89 427.48,-117.96 428.91,-119.00 430.30,-120.03 431.61,-121.03 432.86,-122.02 434.06,-122.98 435.18,-123.91 436.24,-124.81 437.21,-125.69 438.12,-126.54 438.95,-127.35 439.71,-128.12 440.37,-128.85 440.96,-129.54 441.45,-130.17 441.85,-130.77 442.16,-131.28 442.29,-131.56"/>
    </edge>
    <edge id="entry" from="J13" to="J14" priority="-1" shape="-609.70,-74.08 -511.72,-73.68 331.01,-74.84">
        <lane id="entry_0" index="0" speed="33.30" length="940.38" shape="-609.67,-82.08 -511.71,-81.68 330.69,-82.84"/>
        <lane id="entry_1" index="1" speed="33.30" length="940.38" shape="-609.68,-78.88 -511.71,-78.48 330.69,-79.64"/>
        <lane id="entry_2" index="2" speed="33.30" length="940.38" shape="-609.69,-75.68 -511.72,-75.28 330.70,-76.44"/>
    </edge>
    <edge id="exit" from="J7" to="J23" priority="-1" shape="-688.52,-335.05 -688.79,-336.21 -689.02,-337.98 -689.21,-340.25 -689.37,-342.89 -689.49,-345.77 -689.59,-348.78 -689.67,-351.80 -689.72,-354.70 -689.76,-357.35 -689.78,-359.65 -689.79,-361.46 -689.79,-362.67">
        <lane id="exit_0" index="0" speed="13.89" length="28.53" shape="-696.33,-333.34 -696.67,-334.78 -696.98,-337.13 -697.19,-339.68 -697.36,-342.48 -697.48,-345.47 -697.59,-348.54 -697.67,-351.62 -697.72,-354.57 -697.76,-357.25 -697.78,-359.59 -697.79,-361.43 -697.79,-362.52"/>
        <lane id="exit_1" index="1" speed="13.89" length="28.53" shape="-693.22,-334.06 -693.52,-335.35 -693.79,-337.47 -694.00,-339.91 -694.16,-342.65 -694.29,-345.59 -694.39,-348.64 -694.47,-351.69 -694.52,-354.62 -694.56,-357.29 -694.58,-359.61 -694.59,-361.44 -694.59,-362.52"/>
        <lane id="exit_2" index="2" speed="13.89" length="28.53" shape="-690.10,-334.79 -690.37,-335.92 -690.61,-337.81 -690.81,-340.14 -690.97,-342.81 -691.09,-345.71 -691.19,-348.73 -691.27,-351.76 -691.32,-354.67 -691.36,-357.33 -691.38,-359.64 -691.39,-361.45 -691.39,-362.52"/>
    </edge>

    <junction id="J0" type="priority" x="324.80" y="-217.76" incLanes="E0_0 E0_1 E0_2" intLanes=":J0_0_0 :J0_0_1 :J0_0_2" shape="324.18,-208.16 325.47,-217.67 324.97,-217.73 324.80,-217.75 324.63,-217.76 324.41,-217.76 324.13,-217.76">
        <request index="0" response="000" foes="000" cont="0"/>
        <request index="1" response="000" foes="000" cont="0"/>
        <request index="2" response="000" foes="000" cont="0"/>
    </junction>
    <junction id="J1" type="priority" x="44.89" y="-216.12" incLanes="E1_0 E1_1 E1_2" intLanes=":J1_0_0 :J1_0_1" shape="48.52,-206.54 48.46,-216.14 45.44,-215.30 43.51,-213.76 42.28,-213.17 40.49,-212.94 40.50,-206.54">
        <request index="0" response="00" foes="00" cont="0"/>
        <request index="1" response="00" foes="00" cont="0"/>
    </junction>
    <junction id="J13" type="dead_end" x="-609.70" y="-74.08" incLanes="" intLanes="" shape="-609.70,-74.08 -609.66,-83.68"/>
    <junction id="J14" type="priority" x="331.01" y="-74.84" incLanes="entry_0 entry_1 entry_2" intLanes=":J14_0_0 :J14_0_1 :J14_0_2" shape="331.32,-74.86 330.69,-84.44 330.70,-74.84">
        <request index="0" response="000" foes="000" cont="0"/>
        <request index="1" response="000" foes="000" cont="0"/>
        <request index="2" response="000" foes="000" cont="0"/>
    </junction>
    <junction id="J15" type="priority" x="443.85" y="-131.10" incLanes="E9_0 E9_1 E9_2" intLanes=":J15_0_0 :J15_0_1 :J15_0_2" shape="443.99,-131.47 435.07,-135.00 443.74,-130.87">
        <request index="0" response="000" foes="000" cont="0"/>
        <request index="1" response="000" foes="000" cont="0"/>
        <request index="2" response="000" foes="000" cont="0"/>
    </junction>
    <junction id="J17" type="priority" x="-294.65" y="-215.76" incLanes="E1.444_0 E1.444_1" intLanes=":J17_0_0 :J17_0_1 :J17_0_2" shape="-291.08,-206.18 -291.08,-212.58 -294.10,-213.41 -295.06,-214.18 -296.02,-214.95 -297.25,-215.55 -299.03,-215.80 -299.11,-206.20">
        <request index="0" response="000" foes="000" cont="0"/>
        <request index="1" response="000" foes="000" cont="0"/>
        <request index="2" response="000" foes="000" cont="0"/>
    </junction>
    <junction id="J18" type="priority" x="-499.14" y="-217.50" incLanes="E12_0 E12_1 E12_2" intLanes=":J18_0_0 :J18_0_1 :J18_0_2" shape="-499.11,-207.90 -499.03,-217.50 -499.25,-217.50 -499.46,-207.90">
        <request index="0" response="000" foes="000" cont="0"/>
        <request index="1" response="000" foes="000" cont="0"/>
        <request index="2" response="000" foes="000" cont="0"/>
    </junction>