<?xml version="1.0" encoding="UTF-8"?>

<!-- generated on 2024-09-14 14:34:27 by Eclipse SUMO netedit Version 1.20.0
-->

<routes xmlns:xsi="http://www.w3.org/2001/XMLSchema-instance" xsi:noNamespaceSchemaLocation="http://sumo.dlr.de/xsd/routes_file.xsd">
    <!-- VTypes -->
    <vType id="normal_car"
           carFollowModel="Krauss"
           laneChangeModel="LC2013"
           accel="1.5"
           decel="3.0"
           sigma="0.5"
           tau="1.2"
           minGap="2.5"
           maxSpeed="33.3"
           speedFactor="1.4"
           speedDev="0.3"
           lcStrategic="0.8"
           lcCooperative="0.2"
           lcSpeedGain="1.0"
           lcKeepRight="0.2"
           lcAssertive="1.0" />
    <flow id="normal" type="normal_car" begin="0.00" departLane="best" departSpeed="avg" from="entry" to="exit" end="5000.00" number="10000"/>


    <vType id="truck_with_trailer"
           carFollowModel="Krauss"
           laneChangeModel="LC2013"
           accel="0.8"
           decel="2.5"
           sigma="0.4"
           tau="2.0"
           minGap="3.0"
           maxSpeed="25.0"
           speedFactor="0.9"
           speedDev="0.1"
           lcStrategic="0.5"
           lcCooperative="0.3"
           lcSpeedGain="0.8"
           lcKeepRight="0.8"
           lcAssertive="0.3"
           length="12.0"
           guiShape="truck" />

    <flow id="truck_flow" type="truck_with_trailer" begin="0.00" departLane="best" departSpeed="avg" from="entry" to="exit" end="5000.00" number="1000"/>
</routes>
