<?xml version="1.0" encoding="UTF-8"?>

<!-- generated on 2024-09-18 12:04:24 by Eclipse SUMO netedit Version 1.20.0
-->

<routes xmlns:xsi="http://www.w3.org/2001/XMLSchema-instance" xsi:noNamespaceSchemaLocation="http://sumo.dlr.de/xsd/routes_file.xsd">
    <!-- VTypes -->
    <vType id="normal_car" minGap="2.50" maxSpeed="33.30" speedFactor="normc(1.40,0.30,0.20,2.00)" laneChangeModel="LC2013" lcStrategic="0.8" lcCooperative="0.2" lcSpeedGain="1.0" lcKeepRight="0.2" lcAssertive="1.0" carFollowModel="Krauss" accel="1.5" decel="3.0" sigma="0.8" tau="1.5"/>
    <vType id="truck_with_trailer" length="12.00" minGap="3.00" maxSpeed="25.00" speedFactor="normc(0.90,0.10,0.20,2.00)" guiShape="truck" laneChangeModel="LC2013" lcStrategic="0.2" lcCooperative="0.3" lcSpeedGain="0.1" lcKeepRight="1.0" lcAssertive="0.3" carFollowModel="Krauss" accel="0.8" decel="2.5" sigma="0.4" tau="1.2"/>
    <!-- Vehicles, persons and containers (sorted by depart) -->
    <flow id="normal" type="normal_car" begin="0.00" departLane="best" departSpeed="avg" from="entry" to="exit" end="5000.00" number="10000"/>
    <flow id="truck_flow" type="truck_with_trailer" begin="0.00" departLane="0" departSpeed="avg" from="entry" to="exit" end="5000.00" number="1000"/>
</routes>
