<?xml version="1.0" encoding="UTF-8"?>

<!-- generated on 2024-09-18 12:26:29 by Eclipse SUMO netedit Version 1.20.0
<configuration xmlns:xsi="http://www.w3.org/2001/XMLSchema-instance" xsi:noNamespaceSchemaLocation="http://sumo.dlr.de/xsd/neteditConfiguration.xsd">

    <input>
        <sumo-net-file value="C:\Users\nieder\Documents\Uni\Masterarbeit\Projekt\VerkehrsflussoptimierungDurchCarToCarCommunication\src\main\sumo\autobahn.net.xml"/>
    </input>

    <output>
        <output-file value="C:\Users\nieder\Documents\Uni\Masterarbeit\Projekt\VerkehrsflussoptimierungDurchCarToCarCommunication\src\main\sumo\autobahn.net.xml"/>
        <output.street-names value="true"/>
    </output>

    <processing>
        <geometry.min-radius.fix.railways value="false"/>
        <geometry.max-grade.fix value="false"/>
        <offset.disable-normalization value="true"/>
        <lefthand value="0"/>
    </processing>

    <junctions>
        <no-turnarounds value="true"/>
        <junctions.corner-detail value="5"/>
        <junctions.limit-turn-speed value="5.50"/>
        <rectangular-lane-cut value="0"/>
    </junctions>

    <pedestrian>
        <walkingareas value="0"/>
    </pedestrian>

</configuration>
-->

<net version="1.20" junctionCornerDetail="5" limitTurnSpeed="5.50" xmlns:xsi="http://www.w3.org/2001/XMLSchema-instance" xsi:noNamespaceSchemaLocation="http://sumo.dlr.de/xsd/net_file.xsd">

    <location netOffset="0.00,0.00" convBoundary="-661.30,-341.75,382.49,8.37" origBoundary="-10000000000.00,-10000000000.00,10000000000.00,10000000000.00" projParameter="!"/>

    <edge id=":J10_0" function="internal">
        <lane id=":J10_0_0" index="0" speed="13.89" length="3.01" shape="319.63,-52.91 319.38,-53.08 319.19,-53.16 318.99,-53.20 318.70,-53.21"/>
        <lane id=":J10_0_1" index="1" speed="13.89" length="3.01" shape="321.47,-55.53 320.73,-56.02 320.17,-56.28 319.56,-56.39 318.68,-56.41"/>
        <lane id=":J10_0_2" index="2" speed="13.89" length="3.01" shape="323.31,-58.14 322.09,-58.96 321.15,-59.40 320.14,-59.58 318.67,-59.61"/>
    </edge>
    <edge id=":J11_0" function="internal">
        <lane id=":J11_0_0" index="0" speed="13.89" length="2.95" shape="-541.01,-49.17 -542.46,-49.19 -543.46,-49.36 -544.38,-49.79 -545.59,-50.58"/>
        <lane id=":J11_0_1" index="1" speed="13.89" length="2.95" shape="-541.03,-52.37 -541.90,-52.38 -542.49,-52.49 -543.05,-52.74 -543.77,-53.22"/>
        <lane id=":J11_0_2" index="2" speed="13.89" length="2.95" shape="-541.04,-55.57 -541.33,-55.57 -541.53,-55.61 -541.72,-55.69 -541.96,-55.85"/>
    </edge>
    <edge id=":J12_0" function="internal">
        <lane id=":J12_0_0" index="0" speed="13.89" length="16.19" shape="-597.61,-86.38 -601.04,-89.54 -602.24,-92.75 -601.19,-96.02 -597.91,-99.34"/>
        <lane id=":J12_0_1" index="1" speed="13.89" length="9.71" shape="-595.79,-89.02 -597.85,-90.91 -598.57,-92.84 -597.94,-94.80 -595.98,-96.79"/>
        <lane id=":J12_0_2" index="2" speed="13.89" length="3.24" shape="-593.98,-91.65 -594.66,-92.28 -594.90,-92.93 -594.69,-93.58 -594.04,-94.24"/>
    </edge>
    <edge id=":J13_0" function="internal">
        <lane id=":J13_0_0" index="0" speed="13.89" length="3.18" shape="-549.94,-135.82 -548.68,-136.73 -547.71,-137.22 -546.63,-137.42 -545.08,-137.45"/>
        <lane id=":J13_0_1" index="1" speed="13.89" length="3.18" shape="-548.01,-133.27 -547.25,-133.82 -546.66,-134.11 -546.02,-134.23 -545.09,-134.25"/>
        <lane id=":J13_0_2" index="2" speed="13.89" length="3.18" shape="-546.07,-130.72 -545.82,-130.91 -545.62,-131.00 -545.41,-131.04 -545.10,-131.05"/>
    </edge>
    <edge id=":J14_0" function="internal">
        <lane id=":J14_0_0" index="0" speed="13.89" length="3.09" shape="319.22,-134.76 319.53,-134.77 319.73,-134.80 319.93,-134.90 320.17,-135.07"/>
        <lane id=":J14_0_1" index="1" speed="13.89" length="3.09" shape="319.21,-131.56 320.12,-131.58 320.75,-131.69 321.32,-131.97 322.07,-132.49"/>
        <lane id=":J14_0_2" index="2" speed="13.89" length="3.09" shape="319.20,-128.36 320.72,-128.39 321.76,-128.58 322.72,-129.04 323.96,-129.91"/>
    </edge>
    <edge id=":J15_0" function="internal">
        <lane id=":J15_0_0" index="0" speed="13.89" length="2.91" shape="361.83,-165.66 362.41,-166.23 362.64,-166.83 362.50,-167.45 362.00,-168.10"/>
        <lane id=":J15_0_1" index="1" speed="13.89" length="8.73" shape="363.72,-163.08 365.47,-164.80 366.14,-166.59 365.72,-168.46 364.22,-170.40"/>
        <lane id=":J15_0_2" index="2" speed="13.89" length="14.55" shape="365.62,-160.50 368.53,-163.37 369.64,-166.35 368.95,-169.46 366.45,-172.70"/>
    </edge>
    <edge id=":J16_0" function="internal">
        <lane id=":J16_0_0" index="0" speed="13.89" length="7.59" shape="331.02,-202.53 329.58,-203.30 328.32,-202.94 326.90,-202.19 324.99,-201.80"/>
        <lane id=":J16_0_1" index="1" speed="13.89" length="7.59" shape="333.25,-204.83 331.30,-206.05 329.57,-205.96 327.64,-205.35 325.03,-205.00"/>
    </edge>
    <edge id=":J17_0" function="internal">
        <lane id=":J17_0_0" index="0" speed="13.89" length="9.56" shape="-509.42,-214.45 -512.52,-214.02 -514.65,-213.13 -516.73,-212.53 -519.67,-212.99"/>
        <lane id=":J17_0_1" index="1" speed="13.89" length="9.56" shape="-509.37,-217.65 -512.19,-217.22 -514.11,-216.30 -515.99,-215.66 -518.66,-216.02"/>
        <lane id=":J17_0_2" index="2" speed="13.89" length="9.56" shape="-509.37,-217.65 -511.88,-217.71 -513.59,-217.88 -515.27,-218.29 -517.65,-219.06"/>
    </edge>
    <edge id=":J18_0" function="internal">
        <lane id=":J18_0_0" index="0" speed="13.89" length="17.04" shape="-580.73,-233.34 -585.19,-235.55 -587.27,-238.43 -586.96,-241.96 -584.27,-246.14"/>
        <lane id=":J18_0_1" index="1" speed="13.89" length="10.23" shape="-579.72,-236.38 -582.39,-237.70 -583.64,-239.43 -583.45,-241.55 -581.84,-244.06"/>
        <lane id=":J18_0_2" index="2" speed="13.89" length="3.41" shape="-578.71,-239.41 -579.60,-239.85 -580.01,-240.43 -579.95,-241.14 -579.41,-241.97"/>
    </edge>
    <edge id=":J19_0" function="internal">
        <lane id=":J19_0_0" index="0" speed="13.89" length="6.95" shape="-551.17,-284.65 -549.88,-285.88 -548.43,-286.76 -546.81,-287.28 -545.04,-287.44"/>
        <lane id=":J19_0_1" index="1" speed="13.89" length="4.17" shape="-548.74,-282.57 -547.97,-283.31 -547.10,-283.83 -546.13,-284.14 -545.06,-284.24"/>
        <lane id=":J19_0_2" index="2" speed="13.89" length="1.39" shape="-546.31,-280.48 -546.06,-280.73 -545.77,-280.90 -545.44,-281.01 -545.09,-281.04"/>
    </edge>
    <edge id=":J20_0" function="internal">
        <lane id=":J20_0_0" index="0" speed="13.89" length="2.83" shape="331.70,-280.70 331.98,-280.71 332.17,-280.74 332.35,-280.81 332.59,-280.96"/>
        <lane id=":J20_0_1" index="1" speed="13.89" length="2.83" shape="331.68,-277.50 332.51,-277.51 333.09,-277.60 333.62,-277.84 334.33,-278.27"/>
        <lane id=":J20_0_2" index="2" speed="13.89" length="2.83" shape="331.65,-274.30 333.04,-274.32 334.00,-274.47 334.89,-274.86 336.07,-275.59"/>
    </edge>
    <edge id=":J21_0" function="internal">
        <lane id=":J21_0_0" index="0" speed="13.89" length="3.07" shape="367.83,-303.79 368.49,-304.37 368.74,-304.98 368.60,-305.62 368.05,-306.30"/>
        <lane id=":J21_0_1" index="1" speed="13.89" length="9.22" shape="369.57,-301.11 371.54,-302.83 372.31,-304.66 371.88,-306.60 370.23,-308.64"/>
        <lane id=":J21_0_2" index="2" speed="13.89" length="15.36" shape="371.31,-298.42 374.60,-301.29 375.88,-304.34 375.16,-307.57 372.42,-310.98"/>
    </edge>
    <edge id=":J22_0" function="internal">
        <lane id=":J22_0_0" index="0" speed="13.89" length="3.70" shape="339.16,-333.29 338.89,-333.53 338.67,-333.66 338.42,-333.72 338.06,-333.72"/>
        <lane id=":J22_0_1" index="1" speed="13.89" length="3.70" shape="341.35,-335.63 340.53,-336.35 339.87,-336.74 339.12,-336.90 338.04,-336.92"/>
        <lane id=":J22_0_2" index="2" speed="13.89" length="3.70" shape="343.53,-337.97 342.17,-339.16 341.07,-339.81 339.82,-340.08 338.02,-340.12"/>
    </edge>
    <edge id=":J23_0" function="internal">
        <lane id=":J23_0_0" index="0" speed="13.89" length="0.30" shape="-541.94,-327.86 -542.26,-327.86"/>
        <lane id=":J23_0_1" index="1" speed="13.89" length="0.30" shape="-541.97,-331.06 -542.26,-331.06"/>
        <lane id=":J23_0_2" index="2" speed="13.89" length="0.30" shape="-541.99,-334.26 -542.26,-334.26"/>
    </edge>
    <edge id=":J7_0" function="internal">
        <lane id=":J7_0_0" index="0" speed="13.89" length="0.30" shape="-540.52,-0.31 -540.22,-0.31"/>
        <lane id=":J7_0_1" index="1" speed="13.89" length="0.30" shape="-540.52,2.89 -540.22,2.89"/>
        <lane id=":J7_0_2" index="2" speed="13.89" length="0.30" shape="-540.52,6.09 -540.22,6.09"/>
    </edge>
    <edge id=":J8_0" function="internal">
        <lane id=":J8_0_0" index="0" speed="13.89" length="2.44" shape="316.51,0.37 316.75,0.36 316.91,0.34 317.07,0.28 317.28,0.17"/>
        <lane id=":J8_0_1" index="1" speed="13.89" length="2.44" shape="316.51,3.57 317.23,3.56 317.72,3.49 318.19,3.31 318.82,2.97"/>
        <lane id=":J8_0_2" index="2" speed="13.89" length="2.44" shape="316.50,6.77 317.70,6.75 318.53,6.64 319.31,6.34 320.37,5.78"/>
    </edge>
    <edge id=":J9_0" function="internal">
        <lane id=":J9_0_0" index="0" speed="13.89" length="3.62" shape="359.01,-22.91 359.86,-23.54 360.15,-24.21 359.90,-24.91 359.09,-25.64"/>
        <lane id=":J9_0_1" index="1" speed="13.89" length="10.85" shape="360.61,-20.13 363.14,-22.03 364.03,-24.03 363.26,-26.13 360.83,-28.32"/>
        <lane id=":J9_0_2" index="2" speed="13.89" length="18.09" shape="362.20,-17.36 366.43,-20.53 367.90,-23.86 366.61,-27.35 362.58,-31.01"/>
    </edge>

    <edge id="E10" from="J15" to="J16" priority="-1">
        <lane id="E10_0" index="0" speed="13.89" length="46.20" shape="362.00,-168.10 328.80,-200.23"/>
        <lane id="E10_1" index="1" speed="13.89" length="46.20" shape="364.22,-170.40 331.02,-202.53"/>
        <lane id="E10_2" index="2" speed="13.89" length="46.20" shape="366.45,-172.70 333.25,-204.83"/>
    </edge>
    <edge id="E11" from="J16" to="J17" priority="-1" spreadType="roadCenter">
        <lane id="E11_0" index="0" speed="13.89" length="834.51" shape="324.99,-201.80 -509.42,-214.45"/>
        <lane id="E11_1" index="1" speed="13.89" length="834.51" shape="325.03,-205.00 -509.37,-217.65"/>
    </edge>
    <edge id="E12" from="J17" to="J18" priority="-1">
        <lane id="E12_0" index="0" speed="13.89" length="64.36" shape="-519.67,-212.99 -580.73,-233.34"/>
        <lane id="E12_1" index="1" speed="13.89" length="64.36" shape="-518.66,-216.02 -579.72,-236.38"/>
        <lane id="E12_2" index="2" speed="13.89" length="64.36" shape="-517.65,-219.06 -578.71,-239.41"/>
    </edge>
    <edge id="E13" from="J18" to="J19" priority="-1">
        <lane id="E13_0" index="0" speed="13.89" length="50.78" shape="-584.27,-246.14 -551.17,-284.65"/>
        <lane id="E13_1" index="1" speed="13.89" length="50.78" shape="-581.84,-244.06 -548.74,-282.57"/>
        <lane id="E13_2" index="2" speed="13.89" length="50.78" shape="-579.41,-241.97 -546.31,-280.48"/>
    </edge>
    <edge id="E14" from="J19" to="J20" priority="-1">
        <lane id="E14_0" index="0" speed="13.89" length="876.77" shape="-545.04,-287.44 331.70,-280.70"/>
        <lane id="E14_1" index="1" speed="13.89" length="876.77" shape="-545.06,-284.24 331.68,-277.50"/>
        <lane id="E14_2" index="2" speed="13.89" length="876.77" shape="-545.09,-281.04 331.65,-274.30"/>
    </edge>
    <edge id="E15" from="J20" to="J21" priority="-1">
        <lane id="E15_0" index="0" speed="13.89" length="41.99" shape="332.59,-280.96 367.83,-303.79"/>
        <lane id="E15_1" index="1" speed="13.89" length="41.99" shape="334.33,-278.27 369.57,-301.11"/>
        <lane id="E15_2" index="2" speed="13.89" length="41.99" shape="336.07,-275.59 371.31,-298.42"/>
    </edge>
    <edge id="E16" from="J21" to="J22" priority="-1">
        <lane id="E16_0" index="0" speed="13.89" length="39.53" shape="368.05,-306.30 339.16,-333.29"/>
        <lane id="E16_1" index="1" speed="13.89" length="39.53" shape="370.23,-308.64 341.35,-335.63"/>
        <lane id="E16_2" index="2" speed="13.89" length="39.53" shape="372.42,-310.98 343.53,-337.97"/>
    </edge>
    <edge id="E17" from="J22" to="J23" priority="-1">
        <lane id="E17_0" index="0" speed="13.89" length="880.02" shape="338.06,-333.72 -541.94,-327.86"/>
        <lane id="E17_1" index="1" speed="13.89" length="880.02" shape="338.04,-336.92 -541.97,-331.06"/>
        <lane id="E17_2" index="2" speed="13.89" length="880.02" shape="338.02,-340.12 -541.99,-334.26"/>
    </edge>
    <edge id="E2" from="J7" to="J8" priority="-1">
        <lane id="E2_0" index="0" speed="13.89" length="856.72" shape="-540.22,-0.31 316.51,0.37"/>
        <lane id="E2_1" index="1" speed="13.89" length="856.72" shape="-540.22,2.89 316.51,3.57"/>
        <lane id="E2_2" index="2" speed="13.89" length="856.72" shape="-540.22,6.09 316.50,6.77"/>
    </edge>
    <edge id="E3" from="J8" to="J9" priority="-1" shape="318.98,8.37 319.18,8.26 319.70,7.97 320.54,7.51 321.66,6.89 323.04,6.12 324.66,5.23 326.51,4.21 328.54,3.08 330.75,1.86 333.10,0.56 335.59,-0.81 338.17,-2.24 340.84,-3.72 343.56,-5.22 346.32,-6.74 349.08,-8.27 351.84,-9.80 354.56,-11.30 357.23,-12.78 359.81,-14.21 362.29,-15.58 364.65,-16.88 366.86,-18.10 368.89,-19.23 370.73,-20.24 372.36,-21.14 373.74,-21.91 374.86,-22.53 375.69,-22.99 376.22,-23.28 376.41,-23.39">
        <lane id="E3_0" index="0" speed="13.89" length="47.75" shape="317.28,0.17 317.77,-0.10 319.17,-0.88 320.80,-1.78 322.63,-2.79 324.66,-3.92 326.88,-5.14 329.24,-6.44 331.72,-7.81 334.29,-9.24 336.97,-10.72 339.70,-12.23 342.45,-13.74 345.20,-15.27 347.97,-16.80 350.69,-18.30 353.35,-19.78 355.94,-21.21 358.43,-22.58 359.01,-22.91"/>
        <lane id="E3_1" index="1" speed="13.89" length="47.75" shape="318.82,2.97 319.33,2.69 320.72,1.92 322.35,1.02 324.18,0.01 326.21,-1.12 328.43,-2.34 330.78,-3.64 333.27,-5.01 335.84,-6.44 338.52,-7.92 341.24,-9.42 344.00,-10.94 346.75,-12.47 349.52,-14.00 352.24,-15.50 354.90,-16.98 357.49,-18.41 359.97,-19.78 360.61,-20.13"/>
        <lane id="E3_2" index="2" speed="13.89" length="47.75" shape="320.37,5.78 320.88,5.49 322.27,4.72 323.89,3.83 325.73,2.81 327.76,1.68 329.98,0.46 332.33,-0.84 334.82,-2.21 337.39,-3.64 340.07,-5.12 342.79,-6.62 345.55,-8.14 348.30,-9.67 351.07,-11.20 353.79,-12.70 356.45,-14.18 359.04,-15.61 361.52,-16.98 362.20,-17.36"/>
    </edge>
    <edge id="E4" from="J9" to="J10" priority="-1" shape="376.41,-23.39 376.24,-23.50 375.77,-23.83 375.02,-24.34 374.02,-25.04 372.77,-25.90 371.31,-26.91 369.65,-28.06 367.81,-29.33 365.81,-30.71 363.68,-32.19 361.42,-33.75 359.07,-35.38 356.63,-37.06 354.14,-38.78 351.60,-40.53 349.05,-42.30 346.50,-44.07 343.96,-45.82 341.47,-47.54 339.03,-49.23 336.68,-50.85 334.42,-52.41 332.28,-53.89 330.29,-55.27 328.45,-56.55 326.79,-57.69 325.32,-58.70 324.08,-59.56 323.08,-60.26 322.33,-60.78 321.86,-61.10 321.69,-61.22">
        <lane id="E4_0" index="0" speed="13.89" length="47.85" shape="359.09,-25.64 356.87,-27.17 354.52,-28.80 352.09,-30.47 349.60,-32.19 347.05,-33.95 344.49,-35.73 341.95,-37.49 339.42,-39.23 336.92,-40.96 334.48,-42.65 332.14,-44.26 329.87,-45.83 327.73,-47.31 325.73,-48.70 323.90,-49.97 322.26,-51.10 320.78,-52.12 319.63,-52.91"/>
        <lane id="E4_1" index="1" speed="13.89" length="47.85" shape="360.83,-28.32 358.69,-29.80 356.34,-31.43 353.90,-33.11 351.41,-34.83 348.87,-36.58 346.31,-38.36 343.77,-40.12 341.23,-41.87 338.74,-43.59 336.30,-45.28 333.95,-46.90 331.69,-48.46 329.55,-49.94 327.55,-51.33 325.72,-52.60 324.07,-53.73 322.59,-54.75 321.47,-55.53"/>
        <lane id="E4_2" index="2" speed="13.89" length="47.85" shape="362.58,-31.01 360.51,-32.43 358.16,-34.06 355.72,-35.74 353.23,-37.46 350.69,-39.21 348.14,-40.99 345.59,-42.75 343.05,-44.50 340.56,-46.22 338.12,-47.91 335.77,-49.53 333.51,-51.09 331.37,-52.57 329.38,-53.96 327.54,-55.23 325.88,-56.37 324.41,-57.38 323.31,-58.14"/>
    </edge>
    <edge id="E5" from="J10" to="J11" priority="-1">
        <lane id="E5_0" index="0" speed="13.89" length="859.72" shape="318.70,-53.21 -541.01,-49.17"/>
        <lane id="E5_1" index="1" speed="13.89" length="859.72" shape="318.68,-56.41 -541.03,-52.37"/>
        <lane id="E5_2" index="2" speed="13.89" length="859.72" shape="318.67,-59.61 -541.04,-55.57"/>
    </edge>
    <edge id="E6" from="J11" to="J12" priority="-1">
        <lane id="E6_0" index="0" speed="13.89" length="63.15" shape="-545.59,-50.58 -597.61,-86.38"/>
        <lane id="E6_1" index="1" speed="13.89" length="63.15" shape="-543.77,-53.22 -595.79,-89.02"/>
        <lane id="E6_2" index="2" speed="13.89" length="63.15" shape="-541.96,-55.85 -593.98,-91.65"/>
    </edge>
    <edge id="E7" from="J12" to="J13" priority="-1">
        <lane id="E7_0" index="0" speed="13.89" length="60.27" shape="-597.91,-99.34 -549.94,-135.82"/>
        <lane id="E7_1" index="1" speed="13.89" length="60.27" shape="-595.98,-96.79 -548.01,-133.27"/>
        <lane id="E7_2" index="2" speed="13.89" length="60.27" shape="-594.04,-94.24 -546.07,-130.72"/>
    </edge>
    <edge id="E8" from="J13" to="J14" priority="-1">
        <lane id="E8_0" index="0" speed="13.89" length="864.30" shape="-545.08,-137.45 319.22,-134.76"/>
        <lane id="E8_1" index="1" speed="13.89" length="864.30" shape="-545.09,-134.25 319.21,-131.56"/>
        <lane id="E8_2" index="2" speed="13.89" length="864.30" shape="-545.10,-131.05 319.20,-128.36"/>
    </edge>
    <edge id="E9" from="J14" to="J15" priority="-1">
        <lane id="E9_0" index="0" speed="13.89" length="51.68" shape="320.17,-135.07 361.83,-165.66"/>
        <lane id="E9_1" index="1" speed="13.89" length="51.68" shape="322.07,-132.49 363.72,-163.08"/>
        <lane id="E9_2" index="2" speed="13.89" length="51.68" shape="323.96,-129.91 365.62,-160.50"/>
    </edge>
    <edge id="entry" from="J6" to="J7" name="entry" priority="-1">
        <lane id="entry_0" index="0" speed="13.89" length="120.78" shape="-661.30,-0.31 -540.52,-0.31"/>
        <lane id="entry_1" index="1" speed="13.89" length="120.78" shape="-661.30,2.89 -540.52,2.89"/>
        <lane id="entry_2" index="2" speed="13.89" length="120.78" shape="-661.30,6.09 -540.52,6.09"/>
    </edge>
    <edge id="exit" from="J23" to="J24" name="exit" priority="-1">
        <lane id="exit_0" index="0" speed="13.89" length="118.91" shape="-542.26,-327.86 -661.17,-327.86"/>
        <lane id="exit_1" index="1" speed="13.89" length="118.91" shape="-542.26,-331.06 -661.17,-331.06"/>
        <lane id="exit_2" index="2" speed="13.89" length="118.91" shape="-542.26,-334.26 -661.17,-334.26"/>
    </edge>

    <junction id="J10" type="priority" x="321.69" y="-61.22" incLanes="E4_0 E4_1 E4_2" intLanes=":J10_0_0 :J10_0_1 :J10_0_2" shape="318.70,-51.61 324.24,-59.45 322.37,-60.65 321.64,-60.96 320.87,-61.13 319.92,-61.20 318.66,-61.21">
        <request index="0" response="000" foes="000" cont="0"/>
        <request index="1" response="000" foes="000" cont="0"/>
        <request index="2" response="000" foes="000" cont="0"/>
    </junction>
    <junction id="J11" type="priority" x="-541.05" y="-57.17" incLanes="E5_0 E5_1 E5_2" intLanes=":J11_0_0 :J11_0_1 :J11_0_2" shape="-541.00,-47.57 -541.05,-57.17 -546.49,-49.26 -544.66,-48.10 -543.94,-47.80 -543.18,-47.64 -542.24,-47.58">
        <request index="0" response="000" foes="000" cont="0"/>
        <request index="1" response="000" foes="000" cont="0"/>
        <request index="2" response="000" foes="000" cont="0"/>
    </junction>
    <junction id="J12" type="priority" x="-593.07" y="-92.97" incLanes="E6_0 E6_1 E6_2" intLanes=":J12_0_0 :J12_0_1 :J12_0_2" shape="-598.51,-85.06 -593.07,-92.97 -598.88,-100.61 -601.80,-97.95 -603.53,-95.31 -604.07,-92.71 -603.41,-90.13 -601.56,-87.58">
        <request index="0" response="000" foes="000" cont="0"/>
        <request index="1" response="000" foes="000" cont="0"/>
        <request index="2" response="000" foes="000" cont="0"/>
    </junction>
    <junction id="J13" type="priority" x="-545.10" y="-129.45" incLanes="E7_0 E7_1 E7_2" intLanes=":J13_0_0 :J13_0_1 :J13_0_2" shape="-545.10,-129.45 -545.07,-139.05 -547.41,-138.96 -548.23,-138.77 -548.99,-138.43 -549.84,-137.88 -550.91,-137.09">
        <request index="0" response="000" foes="000" cont="0"/>
        <request index="1" response="000" foes="000" cont="0"/>
        <request index="2" response="000" foes="000" cont="0"/>
    </junction>
    <junction id="J14" type="priority" x="322.36" y="-126.75" incLanes="E8_0 E8_1 E8_2" intLanes=":J14_0_0 :J14_0_1 :J14_0_2" shape="324.91,-128.62 319.23,-136.36 319.20,-126.76 321.48,-126.84 322.27,-127.02 323.02,-127.35 323.85,-127.87">
        <request index="0" response="000" foes="000" cont="0"/>
        <request index="1" response="000" foes="000" cont="0"/>
        <request index="2" response="000" foes="000" cont="0"/>
    </junction>
    <junction id="J15" type="priority" x="375.73" y="-165.94" incLanes="E9_0 E9_1 E9_2" intLanes=":J15_0_0 :J15_0_1 :J15_0_2" shape="367.56,-173.85 360.88,-166.95 366.57,-159.21 369.14,-161.49 370.75,-163.83 371.40,-166.23 371.08,-168.71 369.80,-171.24">
        <request index="0" response="000" foes="000" cont="0"/>
        <request index="1" response="000" foes="000" cont="0"/>
        <request index="2" response="000" foes="000" cont="0"/>
    </junction>
    <junction id="J16" type="priority" x="333.85" y="-206.47" incLanes="E10_0 E10_1 E10_2" intLanes=":J16_0_0 :J16_0_1" shape="327.68,-199.08 334.36,-205.98 331.50,-207.56 330.20,-207.48 328.80,-207.13 327.13,-206.76 325.06,-206.60 324.96,-200.20 326.09,-200.13 326.48,-200.02 326.83,-199.82 327.22,-199.52">
        <request index="0" response="00" foes="00" cont="0"/>
        <request index="1" response="00" foes="00" cont="0"/>
    </junction>
    <junction id="J17" type="priority" x="-513.35" y="-219.31" incLanes="E11_0 E11_1" intLanes=":J17_0_0 :J17_0_1 :J17_0_2" shape="-509.45,-212.85 -509.35,-219.25 -512.29,-219.34 -513.32,-219.47 -514.34,-219.69 -515.54,-220.05 -517.14,-220.58 -520.18,-211.47 -517.98,-210.98 -516.32,-211.08 -514.92,-211.55 -513.49,-212.15 -511.76,-212.66">
        <request index="0" response="000" foes="000" cont="0"/>
        <request index="1" response="000" foes="000" cont="0"/>
        <request index="2" response="000" foes="000" cont="0"/>
    </junction>
    <junction id="J18" type="priority" x="-578.20" y="-240.93" incLanes="E12_0 E12_1 E12_2" intLanes=":J18_0_0 :J18_0_1 :J18_0_2" shape="-581.24,-231.82 -578.20,-240.93 -585.48,-247.19 -587.95,-243.75 -589.15,-240.66 -589.08,-237.92 -587.74,-235.54 -585.12,-233.51">
        <request index="0" response="000" foes="000" cont="0"/>
        <request index="1" response="000" foes="000" cont="0"/>
        <request index="2" response="000" foes="000" cont="0"/>
    </junction>
    <junction id="J19" type="priority" x="-545.10" y="-279.44" incLanes="E13_0 E13_1 E13_2" intLanes=":J19_0_0 :J19_0_1 :J19_0_2" shape="-545.10,-279.44 -545.03,-289.04 -547.82,-288.68 -549.09,-288.22 -550.27,-287.57 -551.37,-286.73 -552.38,-285.70">
        <request index="0" response="000" foes="000" cont="0"/>
        <request index="1" response="000" foes="000" cont="0"/>
        <request index="2" response="000" foes="000" cont="0"/>
    </junction>
    <junction id="J20" type="priority" x="334.52" y="-272.68" incLanes="E14_0 E14_1 E14_2" intLanes=":J20_0_0 :J20_0_1 :J20_0_2" shape="336.94,-274.25 331.72,-282.30 331.64,-272.70 333.73,-272.76 334.45,-272.90 335.15,-273.17 335.93,-273.61">
        <request index="0" response="000" foes="000" cont="0"/>
        <request index="1" response="000" foes="000" cont="0"/>
        <request index="2" response="000" foes="000" cont="0"/>
    </junction>
    <junction id="J21" type="priority" x="382.49" y="-303.76" incLanes="E15_0 E15_1 E15_2" intLanes=":J21_0_0 :J21_0_1 :J21_0_2" shape="373.51,-312.15 366.96,-305.13 372.18,-297.08 375.08,-299.35 376.91,-301.72 377.67,-304.19 377.35,-306.75 375.97,-309.40">
        <request index="0" response="000" foes="000" cont="0"/>
        <request index="1" response="000" foes="000" cont="0"/>
        <request index="2" response="000" foes="000" cont="0"/>
    </junction>
    <junction id="J22" type="priority" x="341.83" y="-341.75" incLanes="E16_0 E16_1 E16_2" intLanes=":J22_0_0 :J22_0_1 :J22_0_2" shape="338.07,-332.12 344.62,-339.14 342.54,-340.89 341.67,-341.35 340.72,-341.60 339.55,-341.71 338.01,-341.72">
        <request index="0" response="000" foes="000" cont="0"/>
        <request index="1" response="000" foes="000" cont="0"/>
        <request index="2" response="000" foes="000" cont="0"/>
    </junction>
    <junction id="J23" type="priority" x="-542.13" y="-335.86" incLanes="E17_0 E17_1 E17_2" intLanes=":J23_0_0 :J23_0_1 :J23_0_2" shape="-541.93,-326.26 -542.00,-335.86 -542.26,-335.86 -542.26,-326.26">
        <request index="0" response="000" foes="000" cont="0"/>
        <request index="1" response="000" foes="000" cont="0"/>
        <request index="2" response="000" foes="000" cont="0"/>
    </junction>
    <junction id="J24" type="dead_end" x="-661.17" y="-335.86" incLanes="exit_0 exit_1 exit_2" intLanes="" shape="-661.17,-326.26 -661.17,-335.86"/>
    <junction id="J6" type="dead_end" x="-661.30" y="7.69" incLanes="" intLanes="" shape="-661.30,7.69 -661.30,-1.91"/>
    <junction id="J7" type="priority" x="-540.37" y="7.69" incLanes="entry_0 entry_1 entry_2" intLanes=":J7_0_0 :J7_0_1 :J7_0_2" shape="-540.22,7.69 -540.21,-1.91 -540.52,-1.91 -540.52,7.69">
        <request index="0" response="000" foes="000" cont="0"/>
        <request index="1" response="000" foes="000" cont="0"/>
        <request index="2" response="000" foes="000" cont="0"/>
    </junction>
    <junction id="J8" type="priority" x="318.98" y="8.37" incLanes="E2_0 E2_1 E2_2" intLanes=":J8_0_0 :J8_0_1 :J8_0_2" shape="321.14,7.18 316.51,-1.23 316.50,8.37 318.30,8.32 318.93,8.21 319.54,8.00 320.23,7.67">
        <request index="0" response="000" foes="000" cont="0"/>
        <request index="1" response="000" foes="000" cont="0"/>
        <request index="2" response="000" foes="000" cont="0"/>
    </junction>
    <junction id="J9" type="priority" x="376.41" y="-23.39" incLanes="E3_0 E3_1 E3_2" intLanes=":J9_0_0 :J9_0_1 :J9_0_2" shape="363.45,-32.35 358.22,-24.30 363.00,-15.97 366.75,-18.48 369.03,-21.08 369.84,-23.77 369.18,-26.54 367.05,-29.40">
        <request index="0" response="000" foes="000" cont="0"/>
        <request index="1" response="000" foes="000" cont="0"/>
        <request index="2" response="000" foes="000" cont="0"/>
    </junction>

    <connection from="E10" to="E11" fromLane="1" toLane="0" via=":J16_0_0" dir="s" state="M"/>
    <connection from="E10" to="E11" fromLane="2" toLane="1" via=":J16_0_1" dir="s" state="M"/>
    <connection from="E11" to="E12" fromLane="0" toLane="0" via=":J17_0_0" dir="s" state="M"/>
    <connection from="E11" to="E12" fromLane="1" toLane="1" via=":J17_0_1" dir="s" state="M"/>
    <connection from="E11" to="E12" fromLane="1" toLane="2" via=":J17_0_2" dir="s" state="M"/>
    <connection from="E12" to="E13" fromLane="0" toLane="0" via=":J18_0_0" dir="l" state="M"/>
    <connection from="E12" to="E13" fromLane="1" toLane="1" via=":J18_0_1" dir="l" state="M"/>
    <connection from="E12" to="E13" fromLane="2" toLane="2" via=":J18_0_2" dir="l" state="M"/>
    <connection from="E13" to="E14" fromLane="0" toLane="0" via=":J19_0_0" dir="l" state="M"/>
    <connection from="E13" to="E14" fromLane="1" toLane="1" via=":J19_0_1" dir="l" state="M"/>
    <connection from="E13" to="E14" fromLane="2" toLane="2" via=":J19_0_2" dir="l" state="M"/>
    <connection from="E14" to="E15" fromLane="0" toLane="0" via=":J20_0_0" dir="s" state="M"/>
    <connection from="E14" to="E15" fromLane="1" toLane="1" via=":J20_0_1" dir="s" state="M"/>
    <connection from="E14" to="E15" fromLane="2" toLane="2" via=":J20_0_2" dir="s" state="M"/>
    <connection from="E15" to="E16" fromLane="0" toLane="0" via=":J21_0_0" dir="r" state="M"/>
    <connection from="E15" to="E16" fromLane="1" toLane="1" via=":J21_0_1" dir="r" state="M"/>
    <connection from="E15" to="E16" fromLane="2" toLane="2" via=":J21_0_2" dir="r" state="M"/>
    <connection from="E16" to="E17" fromLane="0" toLane="0" via=":J22_0_0" dir="s" state="M"/>
    <connection from="E16" to="E17" fromLane="1" toLane="1" via=":J22_0_1" dir="s" state="M"/>
    <connection from="E16" to="E17" fromLane="2" toLane="2" via=":J22_0_2" dir="s" state="M"/>
    <connection from="E17" to="exit" fromLane="0" toLane="0" via=":J23_0_0" dir="s" state="M"/>
    <connection from="E17" to="exit" fromLane="1" toLane="1" via=":J23_0_1" dir="s" state="M"/>
    <connection from="E17" to="exit" fromLane="2" toLane="2" via=":J23_0_2" dir="s" state="M"/>
    <connection from="E2" to="E3" fromLane="0" toLane="0" via=":J8_0_0" dir="s" state="M"/>
    <connection from="E2" to="E3" fromLane="1" toLane="1" via=":J8_0_1" dir="s" state="M"/>
    <connection from="E2" to="E3" fromLane="2" toLane="2" via=":J8_0_2" dir="s" state="M"/>
    <connection from="E3" to="E4" fromLane="0" toLane="0" via=":J9_0_0" dir="r" state="M"/>
    <connection from="E3" to="E4" fromLane="1" toLane="1" via=":J9_0_1" dir="r" state="M"/>
    <connection from="E3" to="E4" fromLane="2" toLane="2" via=":J9_0_2" dir="r" state="M"/>
    <connection from="E4" to="E5" fromLane="0" toLane="0" via=":J10_0_0" dir="s" state="M"/>
    <connection from="E4" to="E5" fromLane="1" toLane="1" via=":J10_0_1" dir="s" state="M"/>
    <connection from="E4" to="E5" fromLane="2" toLane="2" via=":J10_0_2" dir="s" state="M"/>
    <connection from="E5" to="E6" fromLane="0" toLane="0" via=":J11_0_0" dir="s" state="M"/>