<?xml version="1.0" encoding="UTF-8"?>

<!-- generated on 2024-09-12 20:18:37 by Eclipse SUMO netedit Version 1.20.0
<configuration xmlns:xsi="http://www.w3.org/2001/XMLSchema-instance" xsi:noNamespaceSchemaLocation="http://sumo.dlr.de/xsd/neteditConfiguration.xsd">

    <input>
        <sumocfg-file value="C:\Users\nieder\Documents\Uni\Masterarbeit\Projekt\SumoTests\ersteKommunikation\autobahn.sumocfg"/>
        <route-files value="C:\Users\nieder\Documents\Uni\Masterarbeit\Projekt\SumoTests\ersteKommunikation\autobahn.rou.xml"/>
        <sumo-net-file value="C:\Users\nieder\Documents\Uni\Masterarbeit\Projekt\SumoTests\ersteKommunikation\autobahn.net.xml"/>
    </input>

    <output>
        <output-file value="C:\Users\nieder\Documents\Uni\Masterarbeit\Projekt\SumoTests\ersteKommunikation\autobahn.net.xml"/>
        <output.street-names value="true"/>
    </output>

    <processing>
        <geometry.min-radius.fix.railways value="false"/>
        <geometry.max-grade.fix value="false"/>
        <offset.disable-normalization value="true"/>
        <lefthand value="0"/>
    </processing>

    <junctions>
        <no-turnarounds value="true"/>
        <junctions.corner-detail value="5"/>
        <junctions.limit-turn-speed value="5.50"/>
        <rectangular-lane-cut value="0"/>
    </junctions>

    <pedestrian>
        <walkingareas value="0"/>
    </pedestrian>

</configuration>
-->

<net version="1.20" junctionCornerDetail="5" limitTurnSpeed="5.50" xmlns:xsi="http://www.w3.org/2001/XMLSchema-instance" xsi:noNamespaceSchemaLocation="http://sumo.dlr.de/xsd/net_file.xsd">

    <location netOffset="0.00,0.00" convBoundary="-660.43,70.14,321.73,70.48" origBoundary="-10000000000.00,-10000000000.00,10000000000.00,10000000000.00" projParameter="!"/>

    <edge id=":J2_0" function="internal">
        <lane id=":J2_0_0" index="0" speed="23.05" length="0.10" shape="-539.78,62.18 -539.78,62.18"/>
        <lane id=":J2_0_1" index="1" speed="23.05" length="0.10" shape="-539.78,65.38 -539.78,65.38"/>
        <lane id=":J2_0_2" index="2" speed="23.05" length="0.10" shape="-539.78,68.58 -539.78,68.58"/>
    </edge>
    <edge id=":J3_0" function="internal">
        <lane id=":J3_0_0" index="0" speed="23.05" length="0.10" shape="213.89,62.44 213.89,62.44"/>
        <lane id=":J3_0_1" index="1" speed="23.05" length="0.10" shape="213.89,65.64 213.89,65.64"/>
        <lane id=":J3_0_2" index="2" speed="23.05" length="0.10" shape="213.89,68.84 213.89,68.84"/>
    </edge>

    <edge id="entry" from="J0" to="J2" name="entry" priority="-1">
        <lane id="entry_0" index="0" speed="36.11" length="120.65" shape="-660.43,62.14 -539.78,62.18"/>
        <lane id="entry_1" index="1" speed="36.11" length="120.65" shape="-660.43,65.34 -539.78,65.38"/>
        <lane id="entry_2" index="2" speed="36.11" length="120.65" shape="-660.43,68.54 -539.78,68.58"/>
    </edge>
    <edge id="exit" from="J3" to="J1" name="exit" priority="-1">
        <lane id="exit_0" index="0" speed="36.11" length="107.84" shape="213.89,62.44 321.73,62.48"/>
        <lane id="exit_1" index="1" speed="36.11" length="107.84" shape="213.89,65.64 321.73,65.68"/>
        <lane id="exit_2" index="2" speed="36.11" length="107.84" shape="213.89,68.84 321.73,68.88"/>
    </edge>
    <edge id="longEdge" from="J2" to="J3" name="longEdge" priority="-1">
        <lane id="longEdge_0" index="0" speed="10.00" length="753.67" shape="-539.78,62.18 213.89,62.44"/>
        <lane id="longEdge_1" index="1" speed="10.00" length="753.67" shape="-539.78,65.38 213.89,65.64"/>
        <lane id="longEdge_2" index="2" speed="10.00" length="753.67" shape="-539.78,68.58 213.89,68.84"/>
    </edge>

    <junction id="J0" type="dead_end" x="-660.43" y="70.14" incLanes="" intLanes="" shape="-660.43,70.14 -660.43,60.54"/>
    <junction id="J1" type="dead_end" x="321.73" y="70.48" incLanes="exit_0 exit_1 exit_2" intLanes="" shape="321.73,60.88 321.73,70.48"/>
    <junction id="J2" type="priority" x="-539.78" y="70.18" incLanes="entry_0 entry_1 entry_2" intLanes=":J2_0_0 :J2_0_1 :J2_0_2" shape="-539.78,70.18 -539.78,60.58 -539.78,70.18">
        <request index="0" response="000" foes="000" cont="0"/>
        <request index="1" response="000" foes="000" cont="0"/>
        <request index="2" response="000" foes="000" cont="0"/>
    </junction>
    <junction id="J3" type="priority" x="213.89" y="70.44" incLanes="longEdge_0 longEdge_1 longEdge_2" intLanes=":J3_0_0 :J3_0_1 :J3_0_2" shape="213.89,70.44 213.89,60.84 213.89,70.44">
        <request index="0" response="000" foes="000" cont="0"/>
        <request index="1" response="000" foes="000" cont="0"/>
        <request index="2" response="000" foes="000" cont="0"/>
    </junction>

    <connection from="entry" to="longEdge" fromLane="0" toLane="0" via=":J2_0_0" dir="s" state="M"/>
    <connection from="entry" to="longEdge" fromLane="1" toLane="1" via=":J2_0_1" dir="s" state="M"/>
    <connection from="entry" to="longEdge" fromLane="2" toLane="2" via=":J2_0_2" dir="s" state="M"/>
    <connection from="longEdge" to="exit" fromLane="0" toLane="0" via=":J3_0_0" dir="s" state="M"/>
    <connection from="longEdge" to="exit" fromLane="1" toLane="1" via=":J3_0_1" dir="s" state="M"/>
    <connection from="longEdge" to="exit" fromLane="2" toLane="2" via=":J3_0_2" dir="s" state="M"/>

    <connection from=":J2_0" to="longEdge" fromLane="0" toLane="0" dir="s" state="M"/>
    <connection from=":J2_0" to="longEdge" fromLane="1" toLane="1" dir="s" state="M"/>
    <connection from=":J2_0" to="longEdge" fromLane="2" toLane="2" dir="s" state="M"/>
    <connection from=":J3_0" to="exit" fromLane="0" toLane="0" dir="s" state="M"/>
    <connection from=":J3_0" to="exit" fromLane="1" toLane="1" dir="s" state="M"/>
    <connection from=":J3_0" to="exit" fromLane="2" toLane="2" dir="s" state="M"/>

</net>
